
---------- Begin Simulation Statistics ----------
sim_seconds                                  0.001617                       # Number of seconds simulated
sim_ticks                                  1616574000                       # Number of ticks simulated
final_tick                                 1616574000                       # Number of ticks from beginning of simulation (restored from checkpoints and never reset)
sim_freq                                 1000000000000                       # Frequency of simulated ticks
host_inst_rate                                 140300                       # Simulator instruction rate (inst/s)
host_op_rate                                   140607                       # Simulator op (including micro ops) rate (op/s)
host_tick_rate                                6759335                       # Simulator tick rate (ticks/s)
host_mem_usage                                 686112                       # Number of bytes of host memory used
host_seconds                                   239.16                       # Real time elapsed on the host
sim_insts                                    33554476                       # Number of instructions simulated
sim_ops                                      33627704                       # Number of ops (including micro ops) simulated
system.voltage_domain.voltage                       1                       # Voltage in Volts
system.clk_domain.clock                          1000                       # Clock period in ticks
system.mem_ctrls.bytes_read::cpu0.inst          32448                       # Number of bytes read from this memory
system.mem_ctrls.bytes_read::cpu0.data         295424                       # Number of bytes read from this memory
system.mem_ctrls.bytes_read::cpu1.inst           1728                       # Number of bytes read from this memory
system.mem_ctrls.bytes_read::cpu1.data          16768                       # Number of bytes read from this memory
system.mem_ctrls.bytes_read::cpu2.data          16832                       # Number of bytes read from this memory
system.mem_ctrls.bytes_read::cpu3.inst            128                       # Number of bytes read from this memory
system.mem_ctrls.bytes_read::cpu3.data          16768                       # Number of bytes read from this memory
system.mem_ctrls.bytes_read::cpu4.inst            320                       # Number of bytes read from this memory
system.mem_ctrls.bytes_read::cpu4.data          16832                       # Number of bytes read from this memory
system.mem_ctrls.bytes_read::cpu5.data          16768                       # Number of bytes read from this memory
system.mem_ctrls.bytes_read::cpu6.inst             64                       # Number of bytes read from this memory
system.mem_ctrls.bytes_read::cpu6.data          16768                       # Number of bytes read from this memory
system.mem_ctrls.bytes_read::cpu7.inst             64                       # Number of bytes read from this memory
system.mem_ctrls.bytes_read::cpu7.data          16960                       # Number of bytes read from this memory
system.mem_ctrls.bytes_read::total             447872                       # Number of bytes read from this memory
system.mem_ctrls.bytes_inst_read::cpu0.inst        32448                       # Number of instructions bytes read from this memory
system.mem_ctrls.bytes_inst_read::cpu1.inst         1728                       # Number of instructions bytes read from this memory
system.mem_ctrls.bytes_inst_read::cpu3.inst          128                       # Number of instructions bytes read from this memory
system.mem_ctrls.bytes_inst_read::cpu4.inst          320                       # Number of instructions bytes read from this memory
system.mem_ctrls.bytes_inst_read::cpu6.inst           64                       # Number of instructions bytes read from this memory
system.mem_ctrls.bytes_inst_read::cpu7.inst           64                       # Number of instructions bytes read from this memory
system.mem_ctrls.bytes_inst_read::total         34752                       # Number of instructions bytes read from this memory
system.mem_ctrls.num_reads::cpu0.inst             507                       # Number of read requests responded to by this memory
system.mem_ctrls.num_reads::cpu0.data            4616                       # Number of read requests responded to by this memory
system.mem_ctrls.num_reads::cpu1.inst              27                       # Number of read requests responded to by this memory
system.mem_ctrls.num_reads::cpu1.data             262                       # Number of read requests responded to by this memory
system.mem_ctrls.num_reads::cpu2.data             263                       # Number of read requests responded to by this memory
system.mem_ctrls.num_reads::cpu3.inst               2                       # Number of read requests responded to by this memory
system.mem_ctrls.num_reads::cpu3.data             262                       # Number of read requests responded to by this memory
system.mem_ctrls.num_reads::cpu4.inst               5                       # Number of read requests responded to by this memory
system.mem_ctrls.num_reads::cpu4.data             263                       # Number of read requests responded to by this memory
system.mem_ctrls.num_reads::cpu5.data             262                       # Number of read requests responded to by this memory
system.mem_ctrls.num_reads::cpu6.inst               1                       # Number of read requests responded to by this memory
system.mem_ctrls.num_reads::cpu6.data             262                       # Number of read requests responded to by this memory
system.mem_ctrls.num_reads::cpu7.inst               1                       # Number of read requests responded to by this memory
system.mem_ctrls.num_reads::cpu7.data             265                       # Number of read requests responded to by this memory
system.mem_ctrls.num_reads::total                6998                       # Number of read requests responded to by this memory
system.mem_ctrls.bw_read::cpu0.inst          20072078                       # Total read bandwidth from this memory (bytes/s)
system.mem_ctrls.bw_read::cpu0.data         182746970                       # Total read bandwidth from this memory (bytes/s)
system.mem_ctrls.bw_read::cpu1.inst           1068927                       # Total read bandwidth from this memory (bytes/s)
system.mem_ctrls.bw_read::cpu1.data          10372553                       # Total read bandwidth from this memory (bytes/s)
system.mem_ctrls.bw_read::cpu2.data          10412143                       # Total read bandwidth from this memory (bytes/s)
system.mem_ctrls.bw_read::cpu3.inst             79180                       # Total read bandwidth from this memory (bytes/s)
system.mem_ctrls.bw_read::cpu3.data          10372553                       # Total read bandwidth from this memory (bytes/s)
system.mem_ctrls.bw_read::cpu4.inst            197949                       # Total read bandwidth from this memory (bytes/s)
system.mem_ctrls.bw_read::cpu4.data          10412143                       # Total read bandwidth from this memory (bytes/s)
system.mem_ctrls.bw_read::cpu5.data          10372553                       # Total read bandwidth from this memory (bytes/s)
system.mem_ctrls.bw_read::cpu6.inst             39590                       # Total read bandwidth from this memory (bytes/s)
system.mem_ctrls.bw_read::cpu6.data          10372553                       # Total read bandwidth from this memory (bytes/s)
system.mem_ctrls.bw_read::cpu7.inst             39590                       # Total read bandwidth from this memory (bytes/s)
system.mem_ctrls.bw_read::cpu7.data          10491323                       # Total read bandwidth from this memory (bytes/s)
system.mem_ctrls.bw_read::total             277050107                       # Total read bandwidth from this memory (bytes/s)
system.mem_ctrls.bw_inst_read::cpu0.inst     20072078                       # Instruction read bandwidth from this memory (bytes/s)
system.mem_ctrls.bw_inst_read::cpu1.inst      1068927                       # Instruction read bandwidth from this memory (bytes/s)
system.mem_ctrls.bw_inst_read::cpu3.inst        79180                       # Instruction read bandwidth from this memory (bytes/s)
system.mem_ctrls.bw_inst_read::cpu4.inst       197949                       # Instruction read bandwidth from this memory (bytes/s)
system.mem_ctrls.bw_inst_read::cpu6.inst        39590                       # Instruction read bandwidth from this memory (bytes/s)
system.mem_ctrls.bw_inst_read::cpu7.inst        39590                       # Instruction read bandwidth from this memory (bytes/s)
system.mem_ctrls.bw_inst_read::total         21497315                       # Instruction read bandwidth from this memory (bytes/s)
system.mem_ctrls.bw_total::cpu0.inst         20072078                       # Total bandwidth to/from this memory (bytes/s)
system.mem_ctrls.bw_total::cpu0.data        182746970                       # Total bandwidth to/from this memory (bytes/s)
system.mem_ctrls.bw_total::cpu1.inst          1068927                       # Total bandwidth to/from this memory (bytes/s)
system.mem_ctrls.bw_total::cpu1.data         10372553                       # Total bandwidth to/from this memory (bytes/s)
system.mem_ctrls.bw_total::cpu2.data         10412143                       # Total bandwidth to/from this memory (bytes/s)
system.mem_ctrls.bw_total::cpu3.inst            79180                       # Total bandwidth to/from this memory (bytes/s)
system.mem_ctrls.bw_total::cpu3.data         10372553                       # Total bandwidth to/from this memory (bytes/s)
system.mem_ctrls.bw_total::cpu4.inst           197949                       # Total bandwidth to/from this memory (bytes/s)
system.mem_ctrls.bw_total::cpu4.data         10412143                       # Total bandwidth to/from this memory (bytes/s)
system.mem_ctrls.bw_total::cpu5.data         10372553                       # Total bandwidth to/from this memory (bytes/s)
system.mem_ctrls.bw_total::cpu6.inst            39590                       # Total bandwidth to/from this memory (bytes/s)
system.mem_ctrls.bw_total::cpu6.data         10372553                       # Total bandwidth to/from this memory (bytes/s)
system.mem_ctrls.bw_total::cpu7.inst            39590                       # Total bandwidth to/from this memory (bytes/s)
system.mem_ctrls.bw_total::cpu7.data         10491323                       # Total bandwidth to/from this memory (bytes/s)
system.mem_ctrls.bw_total::total            277050107                       # Total bandwidth to/from this memory (bytes/s)
system.mem_ctrls.readReqs                        6998                       # Number of read requests accepted
system.mem_ctrls.writeReqs                          0                       # Number of write requests accepted
system.mem_ctrls.readBursts                      6998                       # Number of DRAM read bursts, including those serviced by the write queue
system.mem_ctrls.writeBursts                        0                       # Number of DRAM write bursts, including those merged in the write queue
system.mem_ctrls.bytesReadDRAM                 447872                       # Total number of bytes read from DRAM
system.mem_ctrls.bytesReadWrQ                       0                       # Total number of bytes read from write queue
system.mem_ctrls.bytesWritten                       0                       # Total number of bytes written to DRAM
system.mem_ctrls.bytesReadSys                  447872                       # Total read bytes from the system interface side
system.mem_ctrls.bytesWrittenSys                    0                       # Total written bytes from the system interface side
system.mem_ctrls.servicedByWrQ                      0                       # Number of DRAM read bursts serviced by the write queue
system.mem_ctrls.mergedWrBursts                     0                       # Number of DRAM write bursts merged with an existing one
system.mem_ctrls.neitherReadNorWriteReqs            5                       # Number of requests that are neither read nor write
system.mem_ctrls.perBankRdBursts::0               509                       # Per bank write bursts
system.mem_ctrls.perBankRdBursts::1               509                       # Per bank write bursts
system.mem_ctrls.perBankRdBursts::2               518                       # Per bank write bursts
system.mem_ctrls.perBankRdBursts::3               478                       # Per bank write bursts
system.mem_ctrls.perBankRdBursts::4               421                       # Per bank write bursts
system.mem_ctrls.perBankRdBursts::5               445                       # Per bank write bursts
system.mem_ctrls.perBankRdBursts::6               465                       # Per bank write bursts
system.mem_ctrls.perBankRdBursts::7               415                       # Per bank write bursts
system.mem_ctrls.perBankRdBursts::8               398                       # Per bank write bursts
system.mem_ctrls.perBankRdBursts::9               394                       # Per bank write bursts
system.mem_ctrls.perBankRdBursts::10              384                       # Per bank write bursts
system.mem_ctrls.perBankRdBursts::11              396                       # Per bank write bursts
system.mem_ctrls.perBankRdBursts::12              390                       # Per bank write bursts
system.mem_ctrls.perBankRdBursts::13              417                       # Per bank write bursts
system.mem_ctrls.perBankRdBursts::14              422                       # Per bank write bursts
system.mem_ctrls.perBankRdBursts::15              437                       # Per bank write bursts
system.mem_ctrls.perBankWrBursts::0                 0                       # Per bank write bursts
system.mem_ctrls.perBankWrBursts::1                 0                       # Per bank write bursts
system.mem_ctrls.perBankWrBursts::2                 0                       # Per bank write bursts
system.mem_ctrls.perBankWrBursts::3                 0                       # Per bank write bursts
system.mem_ctrls.perBankWrBursts::4                 0                       # Per bank write bursts
system.mem_ctrls.perBankWrBursts::5                 0                       # Per bank write bursts
system.mem_ctrls.perBankWrBursts::6                 0                       # Per bank write bursts
system.mem_ctrls.perBankWrBursts::7                 0                       # Per bank write bursts
system.mem_ctrls.perBankWrBursts::8                 0                       # Per bank write bursts
system.mem_ctrls.perBankWrBursts::9                 0                       # Per bank write bursts
system.mem_ctrls.perBankWrBursts::10                0                       # Per bank write bursts
system.mem_ctrls.perBankWrBursts::11                0                       # Per bank write bursts
system.mem_ctrls.perBankWrBursts::12                0                       # Per bank write bursts
system.mem_ctrls.perBankWrBursts::13                0                       # Per bank write bursts
system.mem_ctrls.perBankWrBursts::14                0                       # Per bank write bursts
system.mem_ctrls.perBankWrBursts::15                0                       # Per bank write bursts
system.mem_ctrls.numRdRetry                         0                       # Number of times read queue was full causing retry
system.mem_ctrls.numWrRetry                         0                       # Number of times write queue was full causing retry
system.mem_ctrls.totGap                    1616530500                       # Total gap between requests
system.mem_ctrls.readPktSize::0                     0                       # Read request sizes (log2)
system.mem_ctrls.readPktSize::1                     0                       # Read request sizes (log2)
system.mem_ctrls.readPktSize::2                     0                       # Read request sizes (log2)
system.mem_ctrls.readPktSize::3                     0                       # Read request sizes (log2)
system.mem_ctrls.readPktSize::4                     0                       # Read request sizes (log2)
system.mem_ctrls.readPktSize::5                     0                       # Read request sizes (log2)
system.mem_ctrls.readPktSize::6                  6998                       # Read request sizes (log2)
system.mem_ctrls.writePktSize::0                    0                       # Write request sizes (log2)
system.mem_ctrls.writePktSize::1                    0                       # Write request sizes (log2)
system.mem_ctrls.writePktSize::2                    0                       # Write request sizes (log2)
system.mem_ctrls.writePktSize::3                    0                       # Write request sizes (log2)
system.mem_ctrls.writePktSize::4                    0                       # Write request sizes (log2)
system.mem_ctrls.writePktSize::5                    0                       # Write request sizes (log2)
system.mem_ctrls.writePktSize::6                    0                       # Write request sizes (log2)
system.mem_ctrls.rdQLenPdf::0                    5514                       # What read queue length does an incoming req see
system.mem_ctrls.rdQLenPdf::1                    1154                       # What read queue length does an incoming req see
system.mem_ctrls.rdQLenPdf::2                     212                       # What read queue length does an incoming req see
system.mem_ctrls.rdQLenPdf::3                      65                       # What read queue length does an incoming req see
system.mem_ctrls.rdQLenPdf::4                      32                       # What read queue length does an incoming req see
system.mem_ctrls.rdQLenPdf::5                      12                       # What read queue length does an incoming req see
system.mem_ctrls.rdQLenPdf::6                       6                       # What read queue length does an incoming req see
system.mem_ctrls.rdQLenPdf::7                       3                       # What read queue length does an incoming req see
system.mem_ctrls.rdQLenPdf::8                       0                       # What read queue length does an incoming req see
system.mem_ctrls.rdQLenPdf::9                       0                       # What read queue length does an incoming req see
system.mem_ctrls.rdQLenPdf::10                      0                       # What read queue length does an incoming req see
system.mem_ctrls.rdQLenPdf::11                      0                       # What read queue length does an incoming req see
system.mem_ctrls.rdQLenPdf::12                      0                       # What read queue length does an incoming req see
system.mem_ctrls.rdQLenPdf::13                      0                       # What read queue length does an incoming req see
system.mem_ctrls.rdQLenPdf::14                      0                       # What read queue length does an incoming req see
system.mem_ctrls.rdQLenPdf::15                      0                       # What read queue length does an incoming req see
system.mem_ctrls.rdQLenPdf::16                      0                       # What read queue length does an incoming req see
system.mem_ctrls.rdQLenPdf::17                      0                       # What read queue length does an incoming req see
system.mem_ctrls.rdQLenPdf::18                      0                       # What read queue length does an incoming req see
system.mem_ctrls.rdQLenPdf::19                      0                       # What read queue length does an incoming req see
system.mem_ctrls.rdQLenPdf::20                      0                       # What read queue length does an incoming req see
system.mem_ctrls.rdQLenPdf::21                      0                       # What read queue length does an incoming req see
system.mem_ctrls.rdQLenPdf::22                      0                       # What read queue length does an incoming req see
system.mem_ctrls.rdQLenPdf::23                      0                       # What read queue length does an incoming req see
system.mem_ctrls.rdQLenPdf::24                      0                       # What read queue length does an incoming req see
system.mem_ctrls.rdQLenPdf::25                      0                       # What read queue length does an incoming req see
system.mem_ctrls.rdQLenPdf::26                      0                       # What read queue length does an incoming req see
system.mem_ctrls.rdQLenPdf::27                      0                       # What read queue length does an incoming req see
system.mem_ctrls.rdQLenPdf::28                      0                       # What read queue length does an incoming req see
system.mem_ctrls.rdQLenPdf::29                      0                       # What read queue length does an incoming req see
system.mem_ctrls.rdQLenPdf::30                      0                       # What read queue length does an incoming req see
system.mem_ctrls.rdQLenPdf::31                      0                       # What read queue length does an incoming req see
system.mem_ctrls.wrQLenPdf::0                       0                       # What write queue length does an incoming req see
system.mem_ctrls.wrQLenPdf::1                       0                       # What write queue length does an incoming req see
system.mem_ctrls.wrQLenPdf::2                       0                       # What write queue length does an incoming req see
system.mem_ctrls.wrQLenPdf::3                       0                       # What write queue length does an incoming req see
system.mem_ctrls.wrQLenPdf::4                       0                       # What write queue length does an incoming req see
system.mem_ctrls.wrQLenPdf::5                       0                       # What write queue length does an incoming req see
system.mem_ctrls.wrQLenPdf::6                       0                       # What write queue length does an incoming req see
system.mem_ctrls.wrQLenPdf::7                       0                       # What write queue length does an incoming req see
system.mem_ctrls.wrQLenPdf::8                       0                       # What write queue length does an incoming req see
system.mem_ctrls.wrQLenPdf::9                       0                       # What write queue length does an incoming req see
system.mem_ctrls.wrQLenPdf::10                      0                       # What write queue length does an incoming req see
system.mem_ctrls.wrQLenPdf::11                      0                       # What write queue length does an incoming req see
system.mem_ctrls.wrQLenPdf::12                      0                       # What write queue length does an incoming req see
system.mem_ctrls.wrQLenPdf::13                      0                       # What write queue length does an incoming req see
system.mem_ctrls.wrQLenPdf::14                      0                       # What write queue length does an incoming req see
system.mem_ctrls.wrQLenPdf::15                      0                       # What write queue length does an incoming req see
system.mem_ctrls.wrQLenPdf::16                      0                       # What write queue length does an incoming req see
system.mem_ctrls.wrQLenPdf::17                      0                       # What write queue length does an incoming req see
system.mem_ctrls.wrQLenPdf::18                      0                       # What write queue length does an incoming req see
system.mem_ctrls.wrQLenPdf::19                      0                       # What write queue length does an incoming req see
system.mem_ctrls.wrQLenPdf::20                      0                       # What write queue length does an incoming req see
system.mem_ctrls.wrQLenPdf::21                      0                       # What write queue length does an incoming req see
system.mem_ctrls.wrQLenPdf::22                      0                       # What write queue length does an incoming req see
system.mem_ctrls.wrQLenPdf::23                      0                       # What write queue length does an incoming req see
system.mem_ctrls.wrQLenPdf::24                      0                       # What write queue length does an incoming req see
system.mem_ctrls.wrQLenPdf::25                      0                       # What write queue length does an incoming req see
system.mem_ctrls.wrQLenPdf::26                      0                       # What write queue length does an incoming req see
system.mem_ctrls.wrQLenPdf::27                      0                       # What write queue length does an incoming req see
system.mem_ctrls.wrQLenPdf::28                      0                       # What write queue length does an incoming req see
system.mem_ctrls.wrQLenPdf::29                      0                       # What write queue length does an incoming req see
system.mem_ctrls.wrQLenPdf::30                      0                       # What write queue length does an incoming req see
system.mem_ctrls.wrQLenPdf::31                      0                       # What write queue length does an incoming req see
system.mem_ctrls.wrQLenPdf::32                      0                       # What write queue length does an incoming req see
system.mem_ctrls.wrQLenPdf::33                      0                       # What write queue length does an incoming req see
system.mem_ctrls.wrQLenPdf::34                      0                       # What write queue length does an incoming req see
system.mem_ctrls.wrQLenPdf::35                      0                       # What write queue length does an incoming req see
system.mem_ctrls.wrQLenPdf::36                      0                       # What write queue length does an incoming req see
system.mem_ctrls.wrQLenPdf::37                      0                       # What write queue length does an incoming req see
system.mem_ctrls.wrQLenPdf::38                      0                       # What write queue length does an incoming req see
system.mem_ctrls.wrQLenPdf::39                      0                       # What write queue length does an incoming req see
system.mem_ctrls.wrQLenPdf::40                      0                       # What write queue length does an incoming req see
system.mem_ctrls.wrQLenPdf::41                      0                       # What write queue length does an incoming req see
system.mem_ctrls.wrQLenPdf::42                      0                       # What write queue length does an incoming req see
system.mem_ctrls.wrQLenPdf::43                      0                       # What write queue length does an incoming req see
system.mem_ctrls.wrQLenPdf::44                      0                       # What write queue length does an incoming req see
system.mem_ctrls.wrQLenPdf::45                      0                       # What write queue length does an incoming req see
system.mem_ctrls.wrQLenPdf::46                      0                       # What write queue length does an incoming req see
system.mem_ctrls.wrQLenPdf::47                      0                       # What write queue length does an incoming req see
system.mem_ctrls.wrQLenPdf::48                      0                       # What write queue length does an incoming req see
system.mem_ctrls.wrQLenPdf::49                      0                       # What write queue length does an incoming req see
system.mem_ctrls.wrQLenPdf::50                      0                       # What write queue length does an incoming req see
system.mem_ctrls.wrQLenPdf::51                      0                       # What write queue length does an incoming req see
system.mem_ctrls.wrQLenPdf::52                      0                       # What write queue length does an incoming req see
system.mem_ctrls.wrQLenPdf::53                      0                       # What write queue length does an incoming req see
system.mem_ctrls.wrQLenPdf::54                      0                       # What write queue length does an incoming req see
system.mem_ctrls.wrQLenPdf::55                      0                       # What write queue length does an incoming req see
system.mem_ctrls.wrQLenPdf::56                      0                       # What write queue length does an incoming req see
system.mem_ctrls.wrQLenPdf::57                      0                       # What write queue length does an incoming req see
system.mem_ctrls.wrQLenPdf::58                      0                       # What write queue length does an incoming req see
system.mem_ctrls.wrQLenPdf::59                      0                       # What write queue length does an incoming req see
system.mem_ctrls.wrQLenPdf::60                      0                       # What write queue length does an incoming req see
system.mem_ctrls.wrQLenPdf::61                      0                       # What write queue length does an incoming req see
system.mem_ctrls.wrQLenPdf::62                      0                       # What write queue length does an incoming req see
system.mem_ctrls.wrQLenPdf::63                      0                       # What write queue length does an incoming req see
system.mem_ctrls.bytesPerActivate::samples         1894                       # Bytes accessed per row activation
system.mem_ctrls.bytesPerActivate::mean    235.590285                       # Bytes accessed per row activation
system.mem_ctrls.bytesPerActivate::gmean   131.640303                       # Bytes accessed per row activation
system.mem_ctrls.bytesPerActivate::stdev   323.645403                       # Bytes accessed per row activation
system.mem_ctrls.bytesPerActivate::0-127          847     44.72%     44.72% # Bytes accessed per row activation
system.mem_ctrls.bytesPerActivate::128-255          703     37.12%     81.84% # Bytes accessed per row activation
system.mem_ctrls.bytesPerActivate::256-383           37      1.95%     83.79% # Bytes accessed per row activation
system.mem_ctrls.bytesPerActivate::384-511           17      0.90%     84.69% # Bytes accessed per row activation
system.mem_ctrls.bytesPerActivate::512-639           10      0.53%     85.22% # Bytes accessed per row activation
system.mem_ctrls.bytesPerActivate::640-767           13      0.69%     85.90% # Bytes accessed per row activation
system.mem_ctrls.bytesPerActivate::768-895            9      0.48%     86.38% # Bytes accessed per row activation
system.mem_ctrls.bytesPerActivate::896-1023           10      0.53%     86.91% # Bytes accessed per row activation
system.mem_ctrls.bytesPerActivate::1024-1151          248     13.09%    100.00% # Bytes accessed per row activation
system.mem_ctrls.bytesPerActivate::total         1894                       # Bytes accessed per row activation
system.mem_ctrls.totQLat                     59226250                       # Total ticks spent queuing
system.mem_ctrls.totMemAccLat               190438750                       # Total ticks spent from burst creation until serviced by the DRAM
system.mem_ctrls.totBusLat                   34990000                       # Total ticks spent in databus transfers
system.mem_ctrls.avgQLat                      8463.31                       # Average queueing delay per DRAM burst
system.mem_ctrls.avgBusLat                    5000.00                       # Average bus latency per DRAM burst
system.mem_ctrls.avgMemAccLat                27213.31                       # Average memory access latency per DRAM burst
system.mem_ctrls.avgRdBW                       277.05                       # Average DRAM read bandwidth in MiByte/s
system.mem_ctrls.avgWrBW                         0.00                       # Average achieved write bandwidth in MiByte/s
system.mem_ctrls.avgRdBWSys                    277.05                       # Average system read bandwidth in MiByte/s
system.mem_ctrls.avgWrBWSys                      0.00                       # Average system write bandwidth in MiByte/s
system.mem_ctrls.peakBW                      12800.00                       # Theoretical peak bandwidth in MiByte/s
system.mem_ctrls.busUtil                         2.16                       # Data bus utilization in percentage
system.mem_ctrls.busUtilRead                     2.16                       # Data bus utilization in percentage for reads
system.mem_ctrls.busUtilWrite                    0.00                       # Data bus utilization in percentage for writes
system.mem_ctrls.avgRdQLen                       1.51                       # Average read queue length when enqueuing
system.mem_ctrls.avgWrQLen                       0.00                       # Average write queue length when enqueuing
system.mem_ctrls.readRowHits                     5094                       # Number of row buffer hits during reads
system.mem_ctrls.writeRowHits                       0                       # Number of row buffer hits during writes
system.mem_ctrls.readRowHitRate                 72.79                       # Row buffer hit rate for reads
system.mem_ctrls.writeRowHitRate                  nan                       # Row buffer hit rate for writes
system.mem_ctrls.avgGap                     230998.93                       # Average gap between requests
system.mem_ctrls.pageHitRate                    72.79                       # Row buffer hit rate, read and write combined
system.mem_ctrls_0.actEnergy                  7779240                       # Energy for activate commands per rank (pJ)
system.mem_ctrls_0.preEnergy                  4244625                       # Energy for precharge commands per rank (pJ)
system.mem_ctrls_0.readEnergy                29203200                       # Energy for read commands per rank (pJ)
system.mem_ctrls_0.writeEnergy                      0                       # Energy for write commands per rank (pJ)
system.mem_ctrls_0.refreshEnergy            105271920                       # Energy for refresh commands per rank (pJ)
system.mem_ctrls_0.actBackEnergy            813162285                       # Energy for active background per rank (pJ)
system.mem_ctrls_0.preBackEnergy            253908000                       # Energy for precharge background per rank (pJ)
system.mem_ctrls_0.totalEnergy             1213569270                       # Total energy per rank (pJ)
system.mem_ctrls_0.averagePower            752.828113                       # Core power per rank (mW)
system.mem_ctrls_0.memoryStateTime::IDLE    418016250                       # Time in different power states
system.mem_ctrls_0.memoryStateTime::REF      53820000                       # Time in different power states
system.mem_ctrls_0.memoryStateTime::PRE_PDN            0                       # Time in different power states
system.mem_ctrls_0.memoryStateTime::ACT    1141506250                       # Time in different power states
system.mem_ctrls_0.memoryStateTime::ACT_PDN            0                       # Time in different power states
system.mem_ctrls_1.actEnergy                  6478920                       # Energy for activate commands per rank (pJ)
system.mem_ctrls_1.preEnergy                  3535125                       # Energy for precharge commands per rank (pJ)
system.mem_ctrls_1.readEnergy                24967800                       # Energy for read commands per rank (pJ)
system.mem_ctrls_1.writeEnergy                      0                       # Energy for write commands per rank (pJ)
system.mem_ctrls_1.refreshEnergy            105271920                       # Energy for refresh commands per rank (pJ)
system.mem_ctrls_1.actBackEnergy            780988635                       # Energy for active background per rank (pJ)
system.mem_ctrls_1.preBackEnergy            282122250                       # Energy for precharge background per rank (pJ)
system.mem_ctrls_1.totalEnergy             1203364650                       # Total energy per rank (pJ)
system.mem_ctrls_1.averagePower            746.504125                       # Core power per rank (mW)
system.mem_ctrls_1.memoryStateTime::IDLE    465988500                       # Time in different power states
system.mem_ctrls_1.memoryStateTime::REF      53820000                       # Time in different power states
system.mem_ctrls_1.memoryStateTime::PRE_PDN            0                       # Time in different power states
system.mem_ctrls_1.memoryStateTime::ACT    1094418000                       # Time in different power states
system.mem_ctrls_1.memoryStateTime::ACT_PDN            0                       # Time in different power states
system.cpu0.branchPred.lookups                 315918                       # Number of BP lookups
system.cpu0.branchPred.condPredicted           313481                       # Number of conditional branches predicted
system.cpu0.branchPred.condIncorrect             3265                       # Number of conditional branches incorrect
system.cpu0.branchPred.BTBLookups              313631                       # Number of BTB lookups
system.cpu0.branchPred.BTBHits                 310090                       # Number of BTB hits
system.cpu0.branchPred.BTBCorrect                   0                       # Number of correct BTB predictions (this stat may not work properly.
system.cpu0.branchPred.BTBHitPct            98.870966                       # BTB Hit Percentage
system.cpu0.branchPred.usedRAS                    831                       # Number of times the RAS was used to get a target.
system.cpu0.branchPred.RASInCorrect                12                       # Number of incorrect RAS predictions.
system.cpu_voltage_domain.voltage                   1                       # Voltage in Volts
system.cpu_clk_domain.clock                       500                       # Clock period in ticks
system.cpu0.dstage2_mmu.stage2_tlb.walker.walks            0                       # Table walker walks requested
system.cpu0.dstage2_mmu.stage2_tlb.walker.walkRequestOrigin_Requested::Data            0                       # Table walker requests started/completed, data/inst
system.cpu0.dstage2_mmu.stage2_tlb.walker.walkRequestOrigin_Requested::Inst            0                       # Table walker requests started/completed, data/inst
system.cpu0.dstage2_mmu.stage2_tlb.walker.walkRequestOrigin_Requested::total            0                       # Table walker requests started/completed, data/inst
system.cpu0.dstage2_mmu.stage2_tlb.walker.walkRequestOrigin_Completed::Data            0                       # Table walker requests started/completed, data/inst
system.cpu0.dstage2_mmu.stage2_tlb.walker.walkRequestOrigin_Completed::Inst            0                       # Table walker requests started/completed, data/inst
system.cpu0.dstage2_mmu.stage2_tlb.walker.walkRequestOrigin_Completed::total            0                       # Table walker requests started/completed, data/inst
system.cpu0.dstage2_mmu.stage2_tlb.walker.walkRequestOrigin::total            0                       # Table walker requests started/completed, data/inst
system.cpu0.dstage2_mmu.stage2_tlb.inst_hits            0                       # ITB inst hits
system.cpu0.dstage2_mmu.stage2_tlb.inst_misses            0                       # ITB inst misses
system.cpu0.dstage2_mmu.stage2_tlb.read_hits            0                       # DTB read hits
system.cpu0.dstage2_mmu.stage2_tlb.read_misses            0                       # DTB read misses
system.cpu0.dstage2_mmu.stage2_tlb.write_hits            0                       # DTB write hits
system.cpu0.dstage2_mmu.stage2_tlb.write_misses            0                       # DTB write misses
system.cpu0.dstage2_mmu.stage2_tlb.flush_tlb            0                       # Number of times complete TLB was flushed
system.cpu0.dstage2_mmu.stage2_tlb.flush_tlb_mva            0                       # Number of times TLB was flushed by MVA
system.cpu0.dstage2_mmu.stage2_tlb.flush_tlb_mva_asid            0                       # Number of times TLB was flushed by MVA & ASID
system.cpu0.dstage2_mmu.stage2_tlb.flush_tlb_asid            0                       # Number of times TLB was flushed by ASID
system.cpu0.dstage2_mmu.stage2_tlb.flush_entries            0                       # Number of entries that have been flushed from TLB
system.cpu0.dstage2_mmu.stage2_tlb.align_faults            0                       # Number of TLB faults due to alignment restrictions
system.cpu0.dstage2_mmu.stage2_tlb.prefetch_faults            0                       # Number of TLB faults due to prefetch
system.cpu0.dstage2_mmu.stage2_tlb.domain_faults            0                       # Number of TLB faults due to domain restrictions
system.cpu0.dstage2_mmu.stage2_tlb.perms_faults            0                       # Number of TLB faults due to permissions restrictions
system.cpu0.dstage2_mmu.stage2_tlb.read_accesses            0                       # DTB read accesses
system.cpu0.dstage2_mmu.stage2_tlb.write_accesses            0                       # DTB write accesses
system.cpu0.dstage2_mmu.stage2_tlb.inst_accesses            0                       # ITB inst accesses
system.cpu0.dstage2_mmu.stage2_tlb.hits             0                       # DTB hits
system.cpu0.dstage2_mmu.stage2_tlb.misses            0                       # DTB misses
system.cpu0.dstage2_mmu.stage2_tlb.accesses            0                       # DTB accesses
system.cpu0.dtb.walker.walks                        0                       # Table walker walks requested
system.cpu0.dtb.walker.walkRequestOrigin_Requested::Data            0                       # Table walker requests started/completed, data/inst
system.cpu0.dtb.walker.walkRequestOrigin_Requested::Inst            0                       # Table walker requests started/completed, data/inst
system.cpu0.dtb.walker.walkRequestOrigin_Requested::total            0                       # Table walker requests started/completed, data/inst
system.cpu0.dtb.walker.walkRequestOrigin_Completed::Data            0                       # Table walker requests started/completed, data/inst
system.cpu0.dtb.walker.walkRequestOrigin_Completed::Inst            0                       # Table walker requests started/completed, data/inst
system.cpu0.dtb.walker.walkRequestOrigin_Completed::total            0                       # Table walker requests started/completed, data/inst
system.cpu0.dtb.walker.walkRequestOrigin::total            0                       # Table walker requests started/completed, data/inst
system.cpu0.dtb.inst_hits                           0                       # ITB inst hits
system.cpu0.dtb.inst_misses                         0                       # ITB inst misses
system.cpu0.dtb.read_hits                           0                       # DTB read hits
system.cpu0.dtb.read_misses                         0                       # DTB read misses
system.cpu0.dtb.write_hits                          0                       # DTB write hits
system.cpu0.dtb.write_misses                        0                       # DTB write misses
system.cpu0.dtb.flush_tlb                           0                       # Number of times complete TLB was flushed
system.cpu0.dtb.flush_tlb_mva                       0                       # Number of times TLB was flushed by MVA
system.cpu0.dtb.flush_tlb_mva_asid                  0                       # Number of times TLB was flushed by MVA & ASID
system.cpu0.dtb.flush_tlb_asid                      0                       # Number of times TLB was flushed by ASID
system.cpu0.dtb.flush_entries                       0                       # Number of entries that have been flushed from TLB
system.cpu0.dtb.align_faults                        0                       # Number of TLB faults due to alignment restrictions
system.cpu0.dtb.prefetch_faults                     0                       # Number of TLB faults due to prefetch
system.cpu0.dtb.domain_faults                       0                       # Number of TLB faults due to domain restrictions
system.cpu0.dtb.perms_faults                        0                       # Number of TLB faults due to permissions restrictions
system.cpu0.dtb.read_accesses                       0                       # DTB read accesses
system.cpu0.dtb.write_accesses                      0                       # DTB write accesses
system.cpu0.dtb.inst_accesses                       0                       # ITB inst accesses
system.cpu0.dtb.hits                                0                       # DTB hits
system.cpu0.dtb.misses                              0                       # DTB misses
system.cpu0.dtb.accesses                            0                       # DTB accesses
system.cpu0.istage2_mmu.stage2_tlb.walker.walks            0                       # Table walker walks requested
system.cpu0.istage2_mmu.stage2_tlb.walker.walkRequestOrigin_Requested::Data            0                       # Table walker requests started/completed, data/inst
system.cpu0.istage2_mmu.stage2_tlb.walker.walkRequestOrigin_Requested::Inst            0                       # Table walker requests started/completed, data/inst
system.cpu0.istage2_mmu.stage2_tlb.walker.walkRequestOrigin_Requested::total            0                       # Table walker requests started/completed, data/inst
system.cpu0.istage2_mmu.stage2_tlb.walker.walkRequestOrigin_Completed::Data            0                       # Table walker requests started/completed, data/inst
system.cpu0.istage2_mmu.stage2_tlb.walker.walkRequestOrigin_Completed::Inst            0                       # Table walker requests started/completed, data/inst
system.cpu0.istage2_mmu.stage2_tlb.walker.walkRequestOrigin_Completed::total            0                       # Table walker requests started/completed, data/inst
system.cpu0.istage2_mmu.stage2_tlb.walker.walkRequestOrigin::total            0                       # Table walker requests started/completed, data/inst
system.cpu0.istage2_mmu.stage2_tlb.inst_hits            0                       # ITB inst hits
system.cpu0.istage2_mmu.stage2_tlb.inst_misses            0                       # ITB inst misses
system.cpu0.istage2_mmu.stage2_tlb.read_hits            0                       # DTB read hits
system.cpu0.istage2_mmu.stage2_tlb.read_misses            0                       # DTB read misses
system.cpu0.istage2_mmu.stage2_tlb.write_hits            0                       # DTB write hits
system.cpu0.istage2_mmu.stage2_tlb.write_misses            0                       # DTB write misses
system.cpu0.istage2_mmu.stage2_tlb.flush_tlb            0                       # Number of times complete TLB was flushed
system.cpu0.istage2_mmu.stage2_tlb.flush_tlb_mva            0                       # Number of times TLB was flushed by MVA
system.cpu0.istage2_mmu.stage2_tlb.flush_tlb_mva_asid            0                       # Number of times TLB was flushed by MVA & ASID
system.cpu0.istage2_mmu.stage2_tlb.flush_tlb_asid            0                       # Number of times TLB was flushed by ASID
system.cpu0.istage2_mmu.stage2_tlb.flush_entries            0                       # Number of entries that have been flushed from TLB
system.cpu0.istage2_mmu.stage2_tlb.align_faults            0                       # Number of TLB faults due to alignment restrictions
system.cpu0.istage2_mmu.stage2_tlb.prefetch_faults            0                       # Number of TLB faults due to prefetch
system.cpu0.istage2_mmu.stage2_tlb.domain_faults            0                       # Number of TLB faults due to domain restrictions
system.cpu0.istage2_mmu.stage2_tlb.perms_faults            0                       # Number of TLB faults due to permissions restrictions
system.cpu0.istage2_mmu.stage2_tlb.read_accesses            0                       # DTB read accesses
system.cpu0.istage2_mmu.stage2_tlb.write_accesses            0                       # DTB write accesses
system.cpu0.istage2_mmu.stage2_tlb.inst_accesses            0                       # ITB inst accesses
system.cpu0.istage2_mmu.stage2_tlb.hits             0                       # DTB hits
system.cpu0.istage2_mmu.stage2_tlb.misses            0                       # DTB misses
system.cpu0.istage2_mmu.stage2_tlb.accesses            0                       # DTB accesses
system.cpu0.itb.walker.walks                        0                       # Table walker walks requested
system.cpu0.itb.walker.walkRequestOrigin_Requested::Data            0                       # Table walker requests started/completed, data/inst
system.cpu0.itb.walker.walkRequestOrigin_Requested::Inst            0                       # Table walker requests started/completed, data/inst
system.cpu0.itb.walker.walkRequestOrigin_Requested::total            0                       # Table walker requests started/completed, data/inst
system.cpu0.itb.walker.walkRequestOrigin_Completed::Data            0                       # Table walker requests started/completed, data/inst
system.cpu0.itb.walker.walkRequestOrigin_Completed::Inst            0                       # Table walker requests started/completed, data/inst
system.cpu0.itb.walker.walkRequestOrigin_Completed::total            0                       # Table walker requests started/completed, data/inst
system.cpu0.itb.walker.walkRequestOrigin::total            0                       # Table walker requests started/completed, data/inst
system.cpu0.itb.inst_hits                           0                       # ITB inst hits
system.cpu0.itb.inst_misses                         0                       # ITB inst misses
system.cpu0.itb.read_hits                           0                       # DTB read hits
system.cpu0.itb.read_misses                         0                       # DTB read misses
system.cpu0.itb.write_hits                          0                       # DTB write hits
system.cpu0.itb.write_misses                        0                       # DTB write misses
system.cpu0.itb.flush_tlb                           0                       # Number of times complete TLB was flushed
system.cpu0.itb.flush_tlb_mva                       0                       # Number of times TLB was flushed by MVA
system.cpu0.itb.flush_tlb_mva_asid                  0                       # Number of times TLB was flushed by MVA & ASID
system.cpu0.itb.flush_tlb_asid                      0                       # Number of times TLB was flushed by ASID
system.cpu0.itb.flush_entries                       0                       # Number of entries that have been flushed from TLB
system.cpu0.itb.align_faults                        0                       # Number of TLB faults due to alignment restrictions
system.cpu0.itb.prefetch_faults                     0                       # Number of TLB faults due to prefetch
system.cpu0.itb.domain_faults                       0                       # Number of TLB faults due to domain restrictions
system.cpu0.itb.perms_faults                        0                       # Number of TLB faults due to permissions restrictions
system.cpu0.itb.read_accesses                       0                       # DTB read accesses
system.cpu0.itb.write_accesses                      0                       # DTB write accesses
system.cpu0.itb.inst_accesses                       0                       # ITB inst accesses
system.cpu0.itb.hits                                0                       # DTB hits
system.cpu0.itb.misses                              0                       # DTB misses
system.cpu0.itb.accesses                            0                       # DTB accesses
system.cpu0.workload.num_syscalls                1835                       # Number of system calls
system.cpu0.numCycles                         3233149                       # number of cpu cycles simulated
system.cpu0.numWorkItemsStarted                     0                       # number of work items this cpu started
system.cpu0.numWorkItemsCompleted                   0                       # number of work items this cpu completed
system.cpu0.fetch.icacheStallCycles            601209                       # Number of cycles fetch is stalled on an Icache miss
system.cpu0.fetch.Insts                       4483024                       # Number of instructions fetch has processed
system.cpu0.fetch.Branches                     315918                       # Number of branches that fetch encountered
system.cpu0.fetch.predictedBranches            310921                       # Number of branches that fetch has predicted taken
system.cpu0.fetch.Cycles                      2587455                       # Number of cycles fetch has run and was not squashing or blocked
system.cpu0.fetch.SquashCycles                   6651                       # Number of cycles fetch has spent squashing
system.cpu0.fetch.PendingTrapStallCycles            4                       # Number of stall cycles due to pending traps
system.cpu0.fetch.CacheLines                   585953                       # Number of cache lines fetched
system.cpu0.fetch.IcacheSquashes                 1102                       # Number of outstanding Icache misses that were squashed
system.cpu0.fetch.rateDist::samples           3191993                       # Number of instructions fetched each cycle (Total)
system.cpu0.fetch.rateDist::mean             1.407472                       # Number of instructions fetched each cycle (Total)
system.cpu0.fetch.rateDist::stdev            2.581096                       # Number of instructions fetched each cycle (Total)
system.cpu0.fetch.rateDist::underflows              0      0.00%      0.00% # Number of instructions fetched each cycle (Total)
system.cpu0.fetch.rateDist::0                 2304808     72.21%     72.21% # Number of instructions fetched each cycle (Total)
system.cpu0.fetch.rateDist::1                   80414      2.52%     74.73% # Number of instructions fetched each cycle (Total)
system.cpu0.fetch.rateDist::2                   99283      3.11%     77.84% # Number of instructions fetched each cycle (Total)
system.cpu0.fetch.rateDist::3                   81354      2.55%     80.38% # Number of instructions fetched each cycle (Total)
system.cpu0.fetch.rateDist::4                  101937      3.19%     83.58% # Number of instructions fetched each cycle (Total)
system.cpu0.fetch.rateDist::5                   80528      2.52%     86.10% # Number of instructions fetched each cycle (Total)
system.cpu0.fetch.rateDist::6                   95934      3.01%     89.11% # Number of instructions fetched each cycle (Total)
system.cpu0.fetch.rateDist::7                  198273      6.21%     95.32% # Number of instructions fetched each cycle (Total)
system.cpu0.fetch.rateDist::8                  149462      4.68%    100.00% # Number of instructions fetched each cycle (Total)
system.cpu0.fetch.rateDist::overflows               0      0.00%    100.00% # Number of instructions fetched each cycle (Total)
system.cpu0.fetch.rateDist::min_value               0                       # Number of instructions fetched each cycle (Total)
system.cpu0.fetch.rateDist::max_value               8                       # Number of instructions fetched each cycle (Total)
system.cpu0.fetch.rateDist::total             3191993                       # Number of instructions fetched each cycle (Total)
system.cpu0.fetch.branchRate                 0.097712                       # Number of branch fetches per cycle
system.cpu0.fetch.rate                       1.386581                       # Number of inst fetches per cycle
system.cpu0.decode.IdleCycles                  211113                       # Number of cycles decode is idle
system.cpu0.decode.BlockedCycles              2415075                       # Number of cycles decode is blocked
system.cpu0.decode.RunCycles                    71254                       # Number of cycles decode is running
system.cpu0.decode.UnblockCycles               491539                       # Number of cycles decode is unblocking
system.cpu0.decode.SquashCycles                  3012                       # Number of cycles decode is squashing
system.cpu0.decode.BranchResolved                1113                       # Number of times decode resolved a branch
system.cpu0.decode.BranchMispred                  324                       # Number of times decode detected a branch misprediction
system.cpu0.decode.DecodedInsts               4403621                       # Number of instructions handled by decode
system.cpu0.decode.SquashedInsts                 1183                       # Number of squashed instructions handled by decode
system.cpu0.rename.SquashCycles                  3012                       # Number of cycles rename is squashing
system.cpu0.rename.IdleCycles                  361189                       # Number of cycles rename is idle
system.cpu0.rename.BlockCycles                 560789                       # Number of cycles rename is blocking
system.cpu0.rename.serializeStallCycles         12535                       # count of cycles rename stalled for serializing inst
system.cpu0.rename.RunCycles                   400340                       # Number of cycles rename is running
system.cpu0.rename.UnblockCycles              1854128                       # Number of cycles rename is unblocking
system.cpu0.rename.RenamedInsts               4389080                       # Number of instructions processed by rename
system.cpu0.rename.ROBFullEvents                   14                       # Number of times rename has blocked due to ROB full
system.cpu0.rename.IQFullEvents               1545990                       # Number of times rename has blocked due to IQ full
system.cpu0.rename.LQFullEvents                 46560                       # Number of times rename has blocked due to LQ full
system.cpu0.rename.SQFullEvents                257816                       # Number of times rename has blocked due to SQ full
system.cpu0.rename.RenamedOperands            5683719                       # Number of destination operands rename has renamed
system.cpu0.rename.RenameLookups             21595641                       # Number of register rename lookups that rename has made
system.cpu0.rename.int_rename_lookups         7264580                       # Number of integer rename lookups
system.cpu0.rename.fp_rename_lookups               22                       # Number of floating rename lookups
system.cpu0.rename.CommittedMaps              5584998                       # Number of HB maps that are committed
system.cpu0.rename.UndoneMaps                   98721                       # Number of HB maps that are undone due to squashing
system.cpu0.rename.serializingInsts               146                       # count of serializing insts renamed
system.cpu0.rename.tempSerializingInsts           147                       # count of temporary serializing insts renamed
system.cpu0.rename.skidInsts                  2691590                       # count of insts added to the skid buffer
system.cpu0.memDep0.insertedLoads             1078515                       # Number of loads inserted to the mem dependence unit.
system.cpu0.memDep0.insertedStores              77619                       # Number of stores inserted to the mem dependence unit.
system.cpu0.memDep0.conflictingLoads             4674                       # Number of conflicting loads.
system.cpu0.memDep0.conflictingStores             426                       # Number of conflicting stores.
system.cpu0.iq.iqInstsAdded                   4376426                       # Number of instructions added to the IQ (excludes non-spec)
system.cpu0.iq.iqNonSpecInstsAdded                286                       # Number of non-speculative instructions added to the IQ
system.cpu0.iq.iqInstsIssued                  5561271                       # Number of instructions issued
system.cpu0.iq.iqSquashedInstsIssued            10565                       # Number of squashed instructions issued
system.cpu0.iq.iqSquashedInstsExamined          67403                       # Number of squashed instructions iterated over during squash; mainly for profiling
system.cpu0.iq.iqSquashedOperandsExamined       292346                       # Number of squashed operands that are examined and possibly removed from graph
system.cpu0.iq.iqSquashedNonSpecRemoved            85                       # Number of squashed non-spec instructions that were removed
system.cpu0.iq.issued_per_cycle::samples      3191993                       # Number of insts issued each cycle
system.cpu0.iq.issued_per_cycle::mean        1.742257                       # Number of insts issued each cycle
system.cpu0.iq.issued_per_cycle::stdev       0.651669                       # Number of insts issued each cycle
system.cpu0.iq.issued_per_cycle::underflows            0      0.00%      0.00% # Number of insts issued each cycle
system.cpu0.iq.issued_per_cycle::0             372443     11.67%     11.67% # Number of insts issued each cycle
system.cpu0.iq.issued_per_cycle::1              77829      2.44%     14.11% # Number of insts issued each cycle
system.cpu0.iq.issued_per_cycle::2            2741721     85.89%    100.00% # Number of insts issued each cycle
system.cpu0.iq.issued_per_cycle::overflows            0      0.00%    100.00% # Number of insts issued each cycle
system.cpu0.iq.issued_per_cycle::min_value            0                       # Number of insts issued each cycle
system.cpu0.iq.issued_per_cycle::max_value            2                       # Number of insts issued each cycle
system.cpu0.iq.issued_per_cycle::total        3191993                       # Number of insts issued each cycle
system.cpu0.iq.fu_full::No_OpClass                  0                       # attempts to use FU when none available
system.cpu0.iq.fu_full::IntAlu                      0                       # attempts to use FU when none available
system.cpu0.iq.fu_full::IntMult                     0                       # attempts to use FU when none available
system.cpu0.iq.fu_full::IntDiv                      0                       # attempts to use FU when none available
system.cpu0.iq.fu_full::FloatAdd                    0                       # attempts to use FU when none available
system.cpu0.iq.fu_full::FloatCmp                    0                       # attempts to use FU when none available
system.cpu0.iq.fu_full::FloatCvt                    0                       # attempts to use FU when none available
system.cpu0.iq.fu_full::FloatMult                   0                       # attempts to use FU when none available
system.cpu0.iq.fu_full::FloatDiv                    0                       # attempts to use FU when none available
system.cpu0.iq.fu_full::FloatSqrt                   0                       # attempts to use FU when none available
system.cpu0.iq.fu_full::SimdAdd                     0                       # attempts to use FU when none available
system.cpu0.iq.fu_full::SimdAddAcc                  0                       # attempts to use FU when none available
system.cpu0.iq.fu_full::SimdAlu                     0                       # attempts to use FU when none available
system.cpu0.iq.fu_full::SimdCmp                     0                       # attempts to use FU when none available
system.cpu0.iq.fu_full::SimdCvt                     0                       # attempts to use FU when none available
system.cpu0.iq.fu_full::SimdMisc                    0                       # attempts to use FU when none available
system.cpu0.iq.fu_full::SimdMult                    0                       # attempts to use FU when none available
system.cpu0.iq.fu_full::SimdMultAcc                 0                       # attempts to use FU when none available
system.cpu0.iq.fu_full::SimdShift                   0                       # attempts to use FU when none available
system.cpu0.iq.fu_full::SimdShiftAcc                0                       # attempts to use FU when none available
system.cpu0.iq.fu_full::SimdSqrt                    0                       # attempts to use FU when none available
system.cpu0.iq.fu_full::SimdFloatAdd                0                       # attempts to use FU when none available
system.cpu0.iq.fu_full::SimdFloatAlu                0                       # attempts to use FU when none available
system.cpu0.iq.fu_full::SimdFloatCmp                0                       # attempts to use FU when none available
system.cpu0.iq.fu_full::SimdFloatCvt                0                       # attempts to use FU when none available
system.cpu0.iq.fu_full::SimdFloatDiv                0                       # attempts to use FU when none available
system.cpu0.iq.fu_full::SimdFloatMisc               0                       # attempts to use FU when none available
system.cpu0.iq.fu_full::SimdFloatMult               0                       # attempts to use FU when none available
system.cpu0.iq.fu_full::SimdFloatMultAcc            0                       # attempts to use FU when none available
system.cpu0.iq.fu_full::SimdFloatSqrt               0                       # attempts to use FU when none available
system.cpu0.iq.fu_full::MemRead                     0                       # attempts to use FU when none available
system.cpu0.iq.fu_full::MemWrite                    0                       # attempts to use FU when none available
system.cpu0.iq.fu_full::IprAccess                   0                       # attempts to use FU when none available
system.cpu0.iq.fu_full::InstPrefetch                0                       # attempts to use FU when none available
system.cpu0.iq.FU_type_0::No_OpClass                0      0.00%      0.00% # Type of FU issued
system.cpu0.iq.FU_type_0::IntAlu              2360434     42.44%     42.44% # Type of FU issued
system.cpu0.iq.FU_type_0::IntMult              819495     14.74%     57.18% # Type of FU issued
system.cpu0.iq.FU_type_0::IntDiv                    0      0.00%     57.18% # Type of FU issued
system.cpu0.iq.FU_type_0::FloatAdd                  0      0.00%     57.18% # Type of FU issued
system.cpu0.iq.FU_type_0::FloatCmp                  0      0.00%     57.18% # Type of FU issued
system.cpu0.iq.FU_type_0::FloatCvt                  0      0.00%     57.18% # Type of FU issued
system.cpu0.iq.FU_type_0::FloatMult                 0      0.00%     57.18% # Type of FU issued
system.cpu0.iq.FU_type_0::FloatDiv                  0      0.00%     57.18% # Type of FU issued
system.cpu0.iq.FU_type_0::FloatSqrt                 0      0.00%     57.18% # Type of FU issued
system.cpu0.iq.FU_type_0::SimdAdd                   0      0.00%     57.18% # Type of FU issued
system.cpu0.iq.FU_type_0::SimdAddAcc                0      0.00%     57.18% # Type of FU issued
system.cpu0.iq.FU_type_0::SimdAlu                   0      0.00%     57.18% # Type of FU issued
system.cpu0.iq.FU_type_0::SimdCmp                   0      0.00%     57.18% # Type of FU issued
system.cpu0.iq.FU_type_0::SimdCvt                   0      0.00%     57.18% # Type of FU issued
system.cpu0.iq.FU_type_0::SimdMisc                  0      0.00%     57.18% # Type of FU issued
system.cpu0.iq.FU_type_0::SimdMult                  0      0.00%     57.18% # Type of FU issued
system.cpu0.iq.FU_type_0::SimdMultAcc               0      0.00%     57.18% # Type of FU issued
system.cpu0.iq.FU_type_0::SimdShift                 0      0.00%     57.18% # Type of FU issued
system.cpu0.iq.FU_type_0::SimdShiftAcc              0      0.00%     57.18% # Type of FU issued
system.cpu0.iq.FU_type_0::SimdSqrt                  0      0.00%     57.18% # Type of FU issued
system.cpu0.iq.FU_type_0::SimdFloatAdd              0      0.00%     57.18% # Type of FU issued
system.cpu0.iq.FU_type_0::SimdFloatAlu              0      0.00%     57.18% # Type of FU issued
system.cpu0.iq.FU_type_0::SimdFloatCmp              0      0.00%     57.18% # Type of FU issued
system.cpu0.iq.FU_type_0::SimdFloatCvt              0      0.00%     57.18% # Type of FU issued
system.cpu0.iq.FU_type_0::SimdFloatDiv              0      0.00%     57.18% # Type of FU issued
system.cpu0.iq.FU_type_0::SimdFloatMisc             3      0.00%     57.18% # Type of FU issued
system.cpu0.iq.FU_type_0::SimdFloatMult             0      0.00%     57.18% # Type of FU issued
system.cpu0.iq.FU_type_0::SimdFloatMultAcc            0      0.00%     57.18% # Type of FU issued
system.cpu0.iq.FU_type_0::SimdFloatSqrt             0      0.00%     57.18% # Type of FU issued
system.cpu0.iq.FU_type_0::MemRead             2305249     41.45%     98.63% # Type of FU issued
system.cpu0.iq.FU_type_0::MemWrite              76090      1.37%    100.00% # Type of FU issued
system.cpu0.iq.FU_type_0::IprAccess                 0      0.00%    100.00% # Type of FU issued
system.cpu0.iq.FU_type_0::InstPrefetch              0      0.00%    100.00% # Type of FU issued
system.cpu0.iq.FU_type_0::total               5561271                       # Type of FU issued
system.cpu0.iq.rate                          1.720079                       # Inst issue rate
system.cpu0.iq.fu_busy_cnt                          0                       # FU busy when requested
system.cpu0.iq.fu_busy_rate                         0                       # FU busy rate (busy events/executed inst)
system.cpu0.iq.int_inst_queue_reads          14325044                       # Number of integer instruction queue reads
system.cpu0.iq.int_inst_queue_writes          4444123                       # Number of integer instruction queue writes
system.cpu0.iq.int_inst_queue_wakeup_accesses      4315998                       # Number of integer instruction queue wakeup accesses
system.cpu0.iq.fp_inst_queue_reads                 56                       # Number of floating instruction queue reads
system.cpu0.iq.fp_inst_queue_writes                28                       # Number of floating instruction queue writes
system.cpu0.iq.fp_inst_queue_wakeup_accesses           28                       # Number of floating instruction queue wakeup accesses
system.cpu0.iq.int_alu_accesses               5561243                       # Number of integer alu accesses
system.cpu0.iq.fp_alu_accesses                     28                       # Number of floating point alu accesses
system.cpu0.iew.lsq.thread0.forwLoads              82                       # Number of loads that had data forwarded from stores
system.cpu0.iew.lsq.thread0.invAddrLoads            0                       # Number of loads ignored due to an invalid address
system.cpu0.iew.lsq.thread0.squashedLoads        18377                       # Number of loads squashed
system.cpu0.iew.lsq.thread0.ignoredResponses            3                       # Number of memory responses ignored because the instruction is squashed
system.cpu0.iew.lsq.thread0.memOrderViolation           36                       # Number of memory ordering violations
system.cpu0.iew.lsq.thread0.squashedStores         1891                       # Number of stores squashed
system.cpu0.iew.lsq.thread0.invAddrSwpfs            0                       # Number of software prefetches ignored due to an invalid address
system.cpu0.iew.lsq.thread0.blockedLoads            0                       # Number of blocked loads due to partial load-store forwarding
system.cpu0.iew.lsq.thread0.rescheduledLoads           34                       # Number of loads that were rescheduled
system.cpu0.iew.lsq.thread0.cacheBlocked      1243362                       # Number of times an access to memory failed due to the cache being blocked
system.cpu0.iew.iewIdleCycles                       0                       # Number of cycles IEW is idle
system.cpu0.iew.iewSquashCycles                  3012                       # Number of cycles IEW is squashing
system.cpu0.iew.iewBlockCycles                 149764                       # Number of cycles IEW is blocking
system.cpu0.iew.iewUnblockCycles                14522                       # Number of cycles IEW is unblocking
system.cpu0.iew.iewDispatchedInsts            4376719                       # Number of instructions dispatched to IQ
system.cpu0.iew.iewDispSquashedInsts             1296                       # Number of squashed instructions skipped by dispatch
system.cpu0.iew.iewDispLoadInsts              1078515                       # Number of dispatched load instructions
system.cpu0.iew.iewDispStoreInsts               77619                       # Number of dispatched store instructions
system.cpu0.iew.iewDispNonSpecInsts               136                       # Number of dispatched non-speculative instructions
system.cpu0.iew.iewIQFullEvents                  2503                       # Number of times the IQ has become full, causing a stall
system.cpu0.iew.iewLSQFullEvents                  734                       # Number of times the LSQ has become full, causing a stall
system.cpu0.iew.memOrderViolationEvents            36                       # Number of memory order violations
system.cpu0.iew.predictedTakenIncorrect          2443                       # Number of branches that were predicted taken incorrectly
system.cpu0.iew.predictedNotTakenIncorrect          543                       # Number of branches that were predicted not taken incorrectly
system.cpu0.iew.branchMispredicts                2986                       # Number of branch mispredicts detected at execute
system.cpu0.iew.iewExecutedInsts              5558719                       # Number of executed instructions
system.cpu0.iew.iewExecLoadInsts              2303468                       # Number of load instructions executed
system.cpu0.iew.iewExecSquashedInsts             2552                       # Number of squashed instructions skipped in execute
system.cpu0.iew.exec_swp                            0                       # number of swp insts executed
system.cpu0.iew.exec_nop                            7                       # number of nop insts executed
system.cpu0.iew.exec_refs                     2379447                       # number of memory reference insts executed
system.cpu0.iew.exec_branches                  301294                       # Number of branches executed
system.cpu0.iew.exec_stores                     75979                       # Number of stores executed
system.cpu0.iew.exec_rate                    1.719289                       # Inst execution rate
system.cpu0.iew.wb_sent                       4316267                       # cumulative count of insts sent to commit
system.cpu0.iew.wb_count                      4316026                       # cumulative count of insts written-back
system.cpu0.iew.wb_producers                  3858822                       # num instructions producing a value
system.cpu0.iew.wb_consumers                  6354170                       # num instructions consuming a value
system.cpu0.iew.wb_penalized                        0                       # number of instrctions required to write to 'other' IQ
system.cpu0.iew.wb_rate                      1.334930                       # insts written-back per cycle
system.cpu0.iew.wb_fanout                    0.607290                       # average fanout of values written-back
system.cpu0.iew.wb_penalized_rate                   0                       # fraction of instructions written-back that wrote to 'other' IQ
system.cpu0.commit.commitSquashedInsts          67413                       # The number of squashed insts skipped by commit
system.cpu0.commit.commitNonSpecStalls            201                       # The number of times commit has been forced to stall to communicate backwards
system.cpu0.commit.branchMispredicts             2952                       # The number of times a branch was mispredicted
system.cpu0.commit.committed_per_cycle::samples      3181910                       # Number of insts commited each cycle
system.cpu0.commit.committed_per_cycle::mean     1.354315                       # Number of insts commited each cycle
system.cpu0.commit.committed_per_cycle::stdev     2.161601                       # Number of insts commited each cycle
system.cpu0.commit.committed_per_cycle::underflows            0      0.00%      0.00% # Number of insts commited each cycle
system.cpu0.commit.committed_per_cycle::0      1680630     52.82%     52.82% # Number of insts commited each cycle
system.cpu0.commit.committed_per_cycle::1       573521     18.02%     70.84% # Number of insts commited each cycle
system.cpu0.commit.committed_per_cycle::2       375504     11.80%     82.64% # Number of insts commited each cycle
system.cpu0.commit.committed_per_cycle::3       204214      6.42%     89.06% # Number of insts commited each cycle
system.cpu0.commit.committed_per_cycle::4        13952      0.44%     89.50% # Number of insts commited each cycle
system.cpu0.commit.committed_per_cycle::5        76805      2.41%     91.91% # Number of insts commited each cycle
system.cpu0.commit.committed_per_cycle::6        35104      1.10%     93.02% # Number of insts commited each cycle
system.cpu0.commit.committed_per_cycle::7        55759      1.75%     94.77% # Number of insts commited each cycle
system.cpu0.commit.committed_per_cycle::8       166421      5.23%    100.00% # Number of insts commited each cycle
system.cpu0.commit.committed_per_cycle::overflows            0      0.00%    100.00% # Number of insts commited each cycle
system.cpu0.commit.committed_per_cycle::min_value            0                       # Number of insts commited each cycle
system.cpu0.commit.committed_per_cycle::max_value            8                       # Number of insts commited each cycle
system.cpu0.commit.committed_per_cycle::total      3181910                       # Number of insts commited each cycle
system.cpu0.commit.committedInsts             4303274                       # Number of instructions committed
system.cpu0.commit.committedOps               4309309                       # Number of ops (including micro ops) committed
system.cpu0.commit.swp_count                        0                       # Number of s/w prefetches committed
system.cpu0.commit.refs                       1135866                       # Number of memory references committed
system.cpu0.commit.loads                      1060138                       # Number of loads committed
system.cpu0.commit.membars                        113                       # Number of memory barriers committed
system.cpu0.commit.branches                    300654                       # Number of branches committed
system.cpu0.commit.fp_insts                        28                       # Number of committed floating point instructions.
system.cpu0.commit.int_insts                  4009202                       # Number of committed integer instructions.
system.cpu0.commit.function_calls                 312                       # Number of function calls committed.
system.cpu0.commit.op_class_0::No_OpClass            0      0.00%      0.00% # Class of committed instruction
system.cpu0.commit.op_class_0::IntAlu         2354208     54.63%     54.63% # Class of committed instruction
system.cpu0.commit.op_class_0::IntMult         819232     19.01%     73.64% # Class of committed instruction
system.cpu0.commit.op_class_0::IntDiv               0      0.00%     73.64% # Class of committed instruction
system.cpu0.commit.op_class_0::FloatAdd             0      0.00%     73.64% # Class of committed instruction
[...]
system.l2.ReadExReq_avg_mshr_miss_latency::cpu5.data 74992.307692                       # average ReadExReq mshr miss latency
system.l2.ReadExReq_avg_mshr_miss_latency::cpu6.data 74175.961538                       # average ReadExReq mshr miss latency
system.l2.ReadExReq_avg_mshr_miss_latency::cpu7.data 74302.681992                       # average ReadExReq mshr miss latency
system.l2.ReadExReq_avg_mshr_miss_latency::total 64705.278287                       # average ReadExReq mshr miss latency
system.l2.demand_avg_mshr_miss_latency::cpu0.inst 64139.271654                       # average overall mshr miss latency
system.l2.demand_avg_mshr_miss_latency::cpu0.data 61036.874810                       # average overall mshr miss latency
system.l2.demand_avg_mshr_miss_latency::cpu1.inst 90907.407407                       # average overall mshr miss latency
system.l2.demand_avg_mshr_miss_latency::cpu1.data 72340.648855                       # average overall mshr miss latency
system.l2.demand_avg_mshr_miss_latency::cpu2.data 75622.623574                       # average overall mshr miss latency
system.l2.demand_avg_mshr_miss_latency::cpu3.inst        63625                       # average overall mshr miss latency
system.l2.demand_avg_mshr_miss_latency::cpu3.data 74060.114504                       # average overall mshr miss latency
system.l2.demand_avg_mshr_miss_latency::cpu4.inst        77400                       # average overall mshr miss latency
system.l2.demand_avg_mshr_miss_latency::cpu4.data 73696.768061                       # average overall mshr miss latency
system.l2.demand_avg_mshr_miss_latency::cpu5.data 74958.015267                       # average overall mshr miss latency
system.l2.demand_avg_mshr_miss_latency::cpu6.inst        56250                       # average overall mshr miss latency
system.l2.demand_avg_mshr_miss_latency::cpu6.data 74144.083969                       # average overall mshr miss latency
system.l2.demand_avg_mshr_miss_latency::cpu7.inst        70500                       # average overall mshr miss latency
system.l2.demand_avg_mshr_miss_latency::cpu7.data 74383.962264                       # average overall mshr miss latency
system.l2.demand_avg_mshr_miss_latency::total 64841.428714                       # average overall mshr miss latency
system.l2.overall_avg_mshr_miss_latency::cpu0.inst 64139.271654                       # average overall mshr miss latency
system.l2.overall_avg_mshr_miss_latency::cpu0.data 61036.874810                       # average overall mshr miss latency
system.l2.overall_avg_mshr_miss_latency::cpu1.inst 90907.407407                       # average overall mshr miss latency
system.l2.overall_avg_mshr_miss_latency::cpu1.data 72340.648855                       # average overall mshr miss latency
system.l2.overall_avg_mshr_miss_latency::cpu2.data 75622.623574                       # average overall mshr miss latency
system.l2.overall_avg_mshr_miss_latency::cpu3.inst        63625                       # average overall mshr miss latency
system.l2.overall_avg_mshr_miss_latency::cpu3.data 74060.114504                       # average overall mshr miss latency
system.l2.overall_avg_mshr_miss_latency::cpu4.inst        77400                       # average overall mshr miss latency
system.l2.overall_avg_mshr_miss_latency::cpu4.data 73696.768061                       # average overall mshr miss latency
system.l2.overall_avg_mshr_miss_latency::cpu5.data 74958.015267                       # average overall mshr miss latency
system.l2.overall_avg_mshr_miss_latency::cpu6.inst        56250                       # average overall mshr miss latency
system.l2.overall_avg_mshr_miss_latency::cpu6.data 74144.083969                       # average overall mshr miss latency
system.l2.overall_avg_mshr_miss_latency::cpu7.inst        70500                       # average overall mshr miss latency
system.l2.overall_avg_mshr_miss_latency::cpu7.data 74383.962264                       # average overall mshr miss latency
system.l2.overall_avg_mshr_miss_latency::total 64841.428714                       # average overall mshr miss latency
system.l2.no_allocate_misses                        0                       # Number of misses that were no-allocate
system.membus.trans_dist::ReadReq                 671                       # Transaction distribution
system.membus.trans_dist::ReadResp                670                       # Transaction distribution
system.membus.trans_dist::UpgradeReq               13                       # Transaction distribution
system.membus.trans_dist::SCUpgradeReq             20                       # Transaction distribution
system.membus.trans_dist::UpgradeResp               5                       # Transaction distribution
system.membus.trans_dist::ReadExReq              6327                       # Transaction distribution
system.membus.trans_dist::ReadExResp             6327                       # Transaction distribution
system.membus.pkt_count_system.l2.mem_side::system.mem_ctrls.port        14033                       # Packet count per connected master and slave (bytes)
system.membus.pkt_count::total                  14033                       # Packet count per connected master and slave (bytes)
system.membus.pkt_size_system.l2.mem_side::system.mem_ctrls.port       447808                       # Cumulative packet size per connected master and slave (bytes)
system.membus.pkt_size::total                  447808                       # Cumulative packet size per connected master and slave (bytes)
system.membus.snoops                               28                       # Total snoops (count)
system.membus.snoop_fanout::samples              7031                       # Request fanout histogram
system.membus.snoop_fanout::mean                    0                       # Request fanout histogram
system.membus.snoop_fanout::stdev                   0                       # Request fanout histogram
system.membus.snoop_fanout::underflows              0      0.00%      0.00% # Request fanout histogram
system.membus.snoop_fanout::0                    7031    100.00%    100.00% # Request fanout histogram
system.membus.snoop_fanout::1                       0      0.00%    100.00% # Request fanout histogram
system.membus.snoop_fanout::overflows               0      0.00%    100.00% # Request fanout histogram
system.membus.snoop_fanout::min_value               0                       # Request fanout histogram
system.membus.snoop_fanout::max_value               0                       # Request fanout histogram
system.membus.snoop_fanout::total                7031                       # Request fanout histogram
system.membus.reqLayer0.occupancy             7873000                       # Layer occupancy (ticks)
system.membus.reqLayer0.utilization               0.5                       # Layer utilization (%)
system.membus.respLayer1.occupancy           37171996                       # Layer occupancy (ticks)
system.membus.respLayer1.utilization              2.3                       # Layer utilization (%)
system.tol2bus.trans_dist::ReadReq            2122406                       # Transaction distribution
system.tol2bus.trans_dist::ReadResp           2122404                       # Transaction distribution
system.tol2bus.trans_dist::Writeback           207279                       # Transaction distribution
system.tol2bus.trans_dist::UpgradeReq              13                       # Transaction distribution
system.tol2bus.trans_dist::SCUpgradeReq            22                       # Transaction distribution
system.tol2bus.trans_dist::UpgradeResp             35                       # Transaction distribution
system.tol2bus.trans_dist::SCUpgradeFailReq            2                       # Transaction distribution
system.tol2bus.trans_dist::UpgradeFailResp            2                       # Transaction distribution
system.tol2bus.trans_dist::ReadExReq            20701                       # Transaction distribution
system.tol2bus.trans_dist::ReadExResp           20701                       # Transaction distribution
system.tol2bus.pkt_count_system.cpu0.icache.mem_side::system.l2.cpu_side         1264                       # Packet count per connected master and slave (bytes)
system.tol2bus.pkt_count_system.cpu0.dcache.mem_side::system.l2.cpu_side       497004                       # Packet count per connected master and slave (bytes)
system.tol2bus.pkt_count_system.cpu1.icache.mem_side::system.l2.cpu_side          108                       # Packet count per connected master and slave (bytes)
system.tol2bus.pkt_count_system.cpu1.dcache.mem_side::system.l2.cpu_side       431354                       # Packet count per connected master and slave (bytes)
system.tol2bus.pkt_count_system.cpu2.icache.mem_side::system.l2.cpu_side          104                       # Packet count per connected master and slave (bytes)
system.tol2bus.pkt_count_system.cpu2.dcache.mem_side::system.l2.cpu_side       452708                       # Packet count per connected master and slave (bytes)
system.tol2bus.pkt_count_system.cpu3.icache.mem_side::system.l2.cpu_side          110                       # Packet count per connected master and slave (bytes)
system.tol2bus.pkt_count_system.cpu3.dcache.mem_side::system.l2.cpu_side       431375                       # Packet count per connected master and slave (bytes)
system.tol2bus.pkt_count_system.cpu4.icache.mem_side::system.l2.cpu_side          108                       # Packet count per connected master and slave (bytes)
system.tol2bus.pkt_count_system.cpu4.dcache.mem_side::system.l2.cpu_side       430941                       # Packet count per connected master and slave (bytes)
system.tol2bus.pkt_count_system.cpu5.icache.mem_side::system.l2.cpu_side          108                       # Packet count per connected master and slave (bytes)
system.tol2bus.pkt_count_system.cpu5.dcache.mem_side::system.l2.cpu_side       431164                       # Packet count per connected master and slave (bytes)
system.tol2bus.pkt_count_system.cpu6.icache.mem_side::system.l2.cpu_side          108                       # Packet count per connected master and slave (bytes)
system.tol2bus.pkt_count_system.cpu6.dcache.mem_side::system.l2.cpu_side       430936                       # Packet count per connected master and slave (bytes)
system.tol2bus.pkt_count_system.cpu7.icache.mem_side::system.l2.cpu_side          102                       # Packet count per connected master and slave (bytes)
system.tol2bus.pkt_count_system.cpu7.dcache.mem_side::system.l2.cpu_side       431165                       # Packet count per connected master and slave (bytes)
system.tol2bus.pkt_count::total               3538659                       # Packet count per connected master and slave (bytes)
system.tol2bus.pkt_size_system.cpu0.icache.mem_side::system.l2.cpu_side        40384                       # Cumulative packet size per connected master and slave (bytes)
system.tol2bus.pkt_size_system.cpu0.dcache.mem_side::system.l2.cpu_side     14415744                       # Cumulative packet size per connected master and slave (bytes)
system.tol2bus.pkt_size_system.cpu1.icache.mem_side::system.l2.cpu_side         3456                       # Cumulative packet size per connected master and slave (bytes)
system.tol2bus.pkt_size_system.cpu1.dcache.mem_side::system.l2.cpu_side     10504576                       # Cumulative packet size per connected master and slave (bytes)
system.tol2bus.pkt_size_system.cpu2.icache.mem_side::system.l2.cpu_side         3328                       # Cumulative packet size per connected master and slave (bytes)
system.tol2bus.pkt_size_system.cpu2.dcache.mem_side::system.l2.cpu_side     11874624                       # Cumulative packet size per connected master and slave (bytes)
system.tol2bus.pkt_size_system.cpu3.icache.mem_side::system.l2.cpu_side         3520                       # Cumulative packet size per connected master and slave (bytes)
system.tol2bus.pkt_size_system.cpu3.dcache.mem_side::system.l2.cpu_side     10507648                       # Cumulative packet size per connected master and slave (bytes)
system.tol2bus.pkt_size_system.cpu4.icache.mem_side::system.l2.cpu_side         3456                       # Cumulative packet size per connected master and slave (bytes)
system.tol2bus.pkt_size_system.cpu4.dcache.mem_side::system.l2.cpu_side     10479168                       # Cumulative packet size per connected master and slave (bytes)
system.tol2bus.pkt_size_system.cpu5.icache.mem_side::system.l2.cpu_side         3456                       # Cumulative packet size per connected master and slave (bytes)
system.tol2bus.pkt_size_system.cpu5.dcache.mem_side::system.l2.cpu_side     10492736                       # Cumulative packet size per connected master and slave (bytes)
system.tol2bus.pkt_size_system.cpu6.icache.mem_side::system.l2.cpu_side         3456                       # Cumulative packet size per connected master and slave (bytes)
system.tol2bus.pkt_size_system.cpu6.dcache.mem_side::system.l2.cpu_side     10479360                       # Cumulative packet size per connected master and slave (bytes)
system.tol2bus.pkt_size_system.cpu7.icache.mem_side::system.l2.cpu_side         3264                       # Cumulative packet size per connected master and slave (bytes)
system.tol2bus.pkt_size_system.cpu7.dcache.mem_side::system.l2.cpu_side     10494336                       # Cumulative packet size per connected master and slave (bytes)
system.tol2bus.pkt_size::total               89312512                       # Cumulative packet size per connected master and slave (bytes)
system.tol2bus.snoops                          954906                       # Total snoops (count)
system.tol2bus.snoop_fanout::samples          2350424                       # Request fanout histogram
system.tol2bus.snoop_fanout::mean                  15                       # Request fanout histogram
system.tol2bus.snoop_fanout::stdev                  0                       # Request fanout histogram
system.tol2bus.snoop_fanout::underflows             0      0.00%      0.00% # Request fanout histogram
system.tol2bus.snoop_fanout::0                      0      0.00%      0.00% # Request fanout histogram
system.tol2bus.snoop_fanout::1                      0      0.00%      0.00% # Request fanout histogram
system.tol2bus.snoop_fanout::2                      0      0.00%      0.00% # Request fanout histogram
system.tol2bus.snoop_fanout::3                      0      0.00%      0.00% # Request fanout histogram
system.tol2bus.snoop_fanout::4                      0      0.00%      0.00% # Request fanout histogram
system.tol2bus.snoop_fanout::5                      0      0.00%      0.00% # Request fanout histogram
system.tol2bus.snoop_fanout::6                      0      0.00%      0.00% # Request fanout histogram
system.tol2bus.snoop_fanout::7                      0      0.00%      0.00% # Request fanout histogram
system.tol2bus.snoop_fanout::8                      0      0.00%      0.00% # Request fanout histogram
system.tol2bus.snoop_fanout::9                      0      0.00%      0.00% # Request fanout histogram
system.tol2bus.snoop_fanout::10                     0      0.00%      0.00% # Request fanout histogram
system.tol2bus.snoop_fanout::11                     0      0.00%      0.00% # Request fanout histogram
system.tol2bus.snoop_fanout::12                     0      0.00%      0.00% # Request fanout histogram
system.tol2bus.snoop_fanout::13                     0      0.00%      0.00% # Request fanout histogram
system.tol2bus.snoop_fanout::14                     0      0.00%      0.00% # Request fanout histogram
system.tol2bus.snoop_fanout::15               2350424    100.00%    100.00% # Request fanout histogram
system.tol2bus.snoop_fanout::16                     0      0.00%    100.00% # Request fanout histogram
system.tol2bus.snoop_fanout::overflows              0      0.00%    100.00% # Request fanout histogram
system.tol2bus.snoop_fanout::min_value             15                       # Request fanout histogram
system.tol2bus.snoop_fanout::max_value             15                       # Request fanout histogram
system.tol2bus.snoop_fanout::total            2350424                       # Request fanout histogram
system.tol2bus.reqLayer0.occupancy         1382491748                       # Layer occupancy (ticks)
system.tol2bus.reqLayer0.utilization             85.5                       # Layer utilization (%)
system.tol2bus.respLayer0.occupancy           1046969                       # Layer occupancy (ticks)
system.tol2bus.respLayer0.utilization             0.1                       # Layer utilization (%)
system.tol2bus.respLayer1.occupancy         412124920                       # Layer occupancy (ticks)
system.tol2bus.respLayer1.utilization            25.5                       # Layer utilization (%)
system.tol2bus.respLayer4.occupancy             85226                       # Layer occupancy (ticks)
system.tol2bus.respLayer4.utilization             0.0                       # Layer utilization (%)
system.tol2bus.respLayer5.occupancy         404353429                       # Layer occupancy (ticks)
system.tol2bus.respLayer5.utilization            25.0                       # Layer utilization (%)
system.tol2bus.respLayer8.occupancy             88204                       # Layer occupancy (ticks)
system.tol2bus.respLayer8.utilization             0.0                       # Layer utilization (%)
system.tol2bus.respLayer9.occupancy         404274081                       # Layer occupancy (ticks)
system.tol2bus.respLayer9.utilization            25.0                       # Layer utilization (%)
system.tol2bus.respLayer12.occupancy            91202                       # Layer occupancy (ticks)
system.tol2bus.respLayer12.utilization            0.0                       # Layer utilization (%)
system.tol2bus.respLayer13.occupancy        403980463                       # Layer occupancy (ticks)
system.tol2bus.respLayer13.utilization           25.0                       # Layer utilization (%)
system.tol2bus.respLayer16.occupancy            87457                       # Layer occupancy (ticks)
system.tol2bus.respLayer16.utilization            0.0                       # Layer utilization (%)
system.tol2bus.respLayer17.occupancy        404043156                       # Layer occupancy (ticks)
system.tol2bus.respLayer17.utilization           25.0                       # Layer utilization (%)
system.tol2bus.respLayer20.occupancy            85202                       # Layer occupancy (ticks)
system.tol2bus.respLayer20.utilization            0.0                       # Layer utilization (%)
system.tol2bus.respLayer21.occupancy        404329932                       # Layer occupancy (ticks)
system.tol2bus.respLayer21.utilization           25.0                       # Layer utilization (%)
system.tol2bus.respLayer24.occupancy            86209                       # Layer occupancy (ticks)
system.tol2bus.respLayer24.utilization            0.0                       # Layer utilization (%)
system.tol2bus.respLayer25.occupancy        404100322                       # Layer occupancy (ticks)
system.tol2bus.respLayer25.utilization           25.0                       # Layer utilization (%)
system.tol2bus.respLayer28.occupancy            78968                       # Layer occupancy (ticks)
system.tol2bus.respLayer28.utilization            0.0                       # Layer utilization (%)
system.tol2bus.respLayer29.occupancy        404178445                       # Layer occupancy (ticks)
system.tol2bus.respLayer29.utilization           25.0                       # Layer utilization (%)

---------- End Simulation Statistics   ----------
