
---------- Begin Simulation Statistics ----------
sim_seconds                                  0.000047                       # Number of seconds simulated
sim_ticks                                    46570500                       # Number of ticks simulated
final_tick                                   46570500                       # Number of ticks from beginning of simulation (restored from checkpoints and never reset)
sim_freq                                 1000000000000                       # Frequency of simulated ticks
host_inst_rate                                 131554                       # Simulator instruction rate (inst/s)
host_op_rate                                   138611                       # Simulator op (including micro ops) rate (op/s)
host_tick_rate                               35494966                       # Simulator tick rate (ticks/s)
host_mem_usage                                 683808                       # Number of bytes of host memory used
host_seconds                                     1.31                       # Real time elapsed on the host
sim_insts                                      172598                       # Number of instructions simulated
sim_ops                                        181860                       # Number of ops (including micro ops) simulated
system.voltage_domain.voltage                       1                       # Voltage in Volts
system.clk_domain.clock                          1000                       # Clock period in ticks
system.mem_ctrls.bytes_read::cpu0.inst          32384                       # Number of bytes read from this memory
system.mem_ctrls.bytes_read::cpu0.data          11776                       # Number of bytes read from this memory
system.mem_ctrls.bytes_read::cpu1.inst            768                       # Number of bytes read from this memory
system.mem_ctrls.bytes_read::cpu1.data            256                       # Number of bytes read from this memory
system.mem_ctrls.bytes_read::cpu2.inst            640                       # Number of bytes read from this memory
system.mem_ctrls.bytes_read::cpu2.data            256                       # Number of bytes read from this memory
system.mem_ctrls.bytes_read::cpu3.inst            256                       # Number of bytes read from this memory
system.mem_ctrls.bytes_read::cpu3.data            320                       # Number of bytes read from this memory
system.mem_ctrls.bytes_read::cpu4.inst            192                       # Number of bytes read from this memory
system.mem_ctrls.bytes_read::cpu4.data            320                       # Number of bytes read from this memory
system.mem_ctrls.bytes_read::cpu5.inst             64                       # Number of bytes read from this memory
system.mem_ctrls.bytes_read::cpu5.data            256                       # Number of bytes read from this memory
system.mem_ctrls.bytes_read::cpu6.inst             64                       # Number of bytes read from this memory
system.mem_ctrls.bytes_read::cpu6.data            256                       # Number of bytes read from this memory
system.mem_ctrls.bytes_read::cpu7.inst             64                       # Number of bytes read from this memory
system.mem_ctrls.bytes_read::cpu7.data            256                       # Number of bytes read from this memory
system.mem_ctrls.bytes_read::l2.prefetcher        12416                       # Number of bytes read from this memory
system.mem_ctrls.bytes_read::total              60544                       # Number of bytes read from this memory
system.mem_ctrls.bytes_inst_read::cpu0.inst        32384                       # Number of instructions bytes read from this memory
system.mem_ctrls.bytes_inst_read::cpu1.inst          768                       # Number of instructions bytes read from this memory
system.mem_ctrls.bytes_inst_read::cpu2.inst          640                       # Number of instructions bytes read from this memory
system.mem_ctrls.bytes_inst_read::cpu3.inst          256                       # Number of instructions bytes read from this memory
system.mem_ctrls.bytes_inst_read::cpu4.inst          192                       # Number of instructions bytes read from this memory
system.mem_ctrls.bytes_inst_read::cpu5.inst           64                       # Number of instructions bytes read from this memory
system.mem_ctrls.bytes_inst_read::cpu6.inst           64                       # Number of instructions bytes read from this memory
system.mem_ctrls.bytes_inst_read::cpu7.inst           64                       # Number of instructions bytes read from this memory
system.mem_ctrls.bytes_inst_read::total         34432                       # Number of instructions bytes read from this memory
system.mem_ctrls.num_reads::cpu0.inst             506                       # Number of read requests responded to by this memory
system.mem_ctrls.num_reads::cpu0.data             184                       # Number of read requests responded to by this memory
system.mem_ctrls.num_reads::cpu1.inst              12                       # Number of read requests responded to by this memory
system.mem_ctrls.num_reads::cpu1.data               4                       # Number of read requests responded to by this memory
system.mem_ctrls.num_reads::cpu2.inst              10                       # Number of read requests responded to by this memory
system.mem_ctrls.num_reads::cpu2.data               4                       # Number of read requests responded to by this memory
system.mem_ctrls.num_reads::cpu3.inst               4                       # Number of read requests responded to by this memory
system.mem_ctrls.num_reads::cpu3.data               5                       # Number of read requests responded to by this memory
system.mem_ctrls.num_reads::cpu4.inst               3                       # Number of read requests responded to by this memory
system.mem_ctrls.num_reads::cpu4.data               5                       # Number of read requests responded to by this memory
system.mem_ctrls.num_reads::cpu5.inst               1                       # Number of read requests responded to by this memory
system.mem_ctrls.num_reads::cpu5.data               4                       # Number of read requests responded to by this memory
system.mem_ctrls.num_reads::cpu6.inst               1                       # Number of read requests responded to by this memory
system.mem_ctrls.num_reads::cpu6.data               4                       # Number of read requests responded to by this memory
system.mem_ctrls.num_reads::cpu7.inst               1                       # Number of read requests responded to by this memory
system.mem_ctrls.num_reads::cpu7.data               4                       # Number of read requests responded to by this memory
system.mem_ctrls.num_reads::l2.prefetcher          194                       # Number of read requests responded to by this memory
system.mem_ctrls.num_reads::total                 946                       # Number of read requests responded to by this memory
system.mem_ctrls.bw_read::cpu0.inst         695375828                       # Total read bandwidth from this memory (bytes/s)
system.mem_ctrls.bw_read::cpu0.data         252863937                       # Total read bandwidth from this memory (bytes/s)
system.mem_ctrls.bw_read::cpu1.inst          16491126                       # Total read bandwidth from this memory (bytes/s)
system.mem_ctrls.bw_read::cpu1.data           5497042                       # Total read bandwidth from this memory (bytes/s)
system.mem_ctrls.bw_read::cpu2.inst          13742605                       # Total read bandwidth from this memory (bytes/s)
system.mem_ctrls.bw_read::cpu2.data           5497042                       # Total read bandwidth from this memory (bytes/s)
system.mem_ctrls.bw_read::cpu3.inst           5497042                       # Total read bandwidth from this memory (bytes/s)
system.mem_ctrls.bw_read::cpu3.data           6871303                       # Total read bandwidth from this memory (bytes/s)
system.mem_ctrls.bw_read::cpu4.inst           4122782                       # Total read bandwidth from this memory (bytes/s)
system.mem_ctrls.bw_read::cpu4.data           6871303                       # Total read bandwidth from this memory (bytes/s)
system.mem_ctrls.bw_read::cpu5.inst           1374261                       # Total read bandwidth from this memory (bytes/s)
system.mem_ctrls.bw_read::cpu5.data           5497042                       # Total read bandwidth from this memory (bytes/s)
system.mem_ctrls.bw_read::cpu6.inst           1374261                       # Total read bandwidth from this memory (bytes/s)
system.mem_ctrls.bw_read::cpu6.data           5497042                       # Total read bandwidth from this memory (bytes/s)
system.mem_ctrls.bw_read::cpu7.inst           1374261                       # Total read bandwidth from this memory (bytes/s)
system.mem_ctrls.bw_read::cpu7.data           5497042                       # Total read bandwidth from this memory (bytes/s)
system.mem_ctrls.bw_read::l2.prefetcher     266606543                       # Total read bandwidth from this memory (bytes/s)
system.mem_ctrls.bw_read::total            1300050461                       # Total read bandwidth from this memory (bytes/s)
system.mem_ctrls.bw_inst_read::cpu0.inst    695375828                       # Instruction read bandwidth from this memory (bytes/s)
system.mem_ctrls.bw_inst_read::cpu1.inst     16491126                       # Instruction read bandwidth from this memory (bytes/s)
system.mem_ctrls.bw_inst_read::cpu2.inst     13742605                       # Instruction read bandwidth from this memory (bytes/s)
system.mem_ctrls.bw_inst_read::cpu3.inst      5497042                       # Instruction read bandwidth from this memory (bytes/s)
system.mem_ctrls.bw_inst_read::cpu4.inst      4122782                       # Instruction read bandwidth from this memory (bytes/s)
system.mem_ctrls.bw_inst_read::cpu5.inst      1374261                       # Instruction read bandwidth from this memory (bytes/s)
system.mem_ctrls.bw_inst_read::cpu6.inst      1374261                       # Instruction read bandwidth from this memory (bytes/s)
system.mem_ctrls.bw_inst_read::cpu7.inst      1374261                       # Instruction read bandwidth from this memory (bytes/s)
system.mem_ctrls.bw_inst_read::total        739352165                       # Instruction read bandwidth from this memory (bytes/s)
system.mem_ctrls.bw_total::cpu0.inst        695375828                       # Total bandwidth to/from this memory (bytes/s)
system.mem_ctrls.bw_total::cpu0.data        252863937                       # Total bandwidth to/from this memory (bytes/s)
system.mem_ctrls.bw_total::cpu1.inst         16491126                       # Total bandwidth to/from this memory (bytes/s)
system.mem_ctrls.bw_total::cpu1.data          5497042                       # Total bandwidth to/from this memory (bytes/s)
system.mem_ctrls.bw_total::cpu2.inst         13742605                       # Total bandwidth to/from this memory (bytes/s)
system.mem_ctrls.bw_total::cpu2.data          5497042                       # Total bandwidth to/from this memory (bytes/s)
system.mem_ctrls.bw_total::cpu3.inst          5497042                       # Total bandwidth to/from this memory (bytes/s)
system.mem_ctrls.bw_total::cpu3.data          6871303                       # Total bandwidth to/from this memory (bytes/s)
system.mem_ctrls.bw_total::cpu4.inst          4122782                       # Total bandwidth to/from this memory (bytes/s)
system.mem_ctrls.bw_total::cpu4.data          6871303                       # Total bandwidth to/from this memory (bytes/s)
system.mem_ctrls.bw_total::cpu5.inst          1374261                       # Total bandwidth to/from this memory (bytes/s)
system.mem_ctrls.bw_total::cpu5.data          5497042                       # Total bandwidth to/from this memory (bytes/s)
system.mem_ctrls.bw_total::cpu6.inst          1374261                       # Total bandwidth to/from this memory (bytes/s)
system.mem_ctrls.bw_total::cpu6.data          5497042                       # Total bandwidth to/from this memory (bytes/s)
system.mem_ctrls.bw_total::cpu7.inst          1374261                       # Total bandwidth to/from this memory (bytes/s)
system.mem_ctrls.bw_total::cpu7.data          5497042                       # Total bandwidth to/from this memory (bytes/s)
system.mem_ctrls.bw_total::l2.prefetcher    266606543                       # Total bandwidth to/from this memory (bytes/s)
system.mem_ctrls.bw_total::total           1300050461                       # Total bandwidth to/from this memory (bytes/s)
system.mem_ctrls.readReqs                         946                       # Number of read requests accepted
system.mem_ctrls.writeReqs                          0                       # Number of write requests accepted
system.mem_ctrls.readBursts                       946                       # Number of DRAM read bursts, including those serviced by the write queue
system.mem_ctrls.writeBursts                        0                       # Number of DRAM write bursts, including those merged in the write queue
system.mem_ctrls.bytesReadDRAM                  60544                       # Total number of bytes read from DRAM
system.mem_ctrls.bytesReadWrQ                       0                       # Total number of bytes read from write queue
system.mem_ctrls.bytesWritten                       0                       # Total number of bytes written to DRAM
system.mem_ctrls.bytesReadSys                   60544                       # Total read bytes from the system interface side
system.mem_ctrls.bytesWrittenSys                    0                       # Total written bytes from the system interface side
system.mem_ctrls.servicedByWrQ                      0                       # Number of DRAM read bursts serviced by the write queue
system.mem_ctrls.mergedWrBursts                     0                       # Number of DRAM write bursts merged with an existing one
system.mem_ctrls.neitherReadNorWriteReqs            6                       # Number of requests that are neither read nor write
system.mem_ctrls.perBankRdBursts::0               125                       # Per bank write bursts
system.mem_ctrls.perBankRdBursts::1               126                       # Per bank write bursts
system.mem_ctrls.perBankRdBursts::2               135                       # Per bank write bursts
system.mem_ctrls.perBankRdBursts::3               202                       # Per bank write bursts
system.mem_ctrls.perBankRdBursts::4                59                       # Per bank write bursts
system.mem_ctrls.perBankRdBursts::5                20                       # Per bank write bursts
system.mem_ctrls.perBankRdBursts::6                81                       # Per bank write bursts
system.mem_ctrls.perBankRdBursts::7                29                       # Per bank write bursts
system.mem_ctrls.perBankRdBursts::8                16                       # Per bank write bursts
system.mem_ctrls.perBankRdBursts::9                 8                       # Per bank write bursts
system.mem_ctrls.perBankRdBursts::10                0                       # Per bank write bursts
system.mem_ctrls.perBankRdBursts::11               13                       # Per bank write bursts
system.mem_ctrls.perBankRdBursts::12                5                       # Per bank write bursts
system.mem_ctrls.perBankRdBursts::13               34                       # Per bank write bursts
system.mem_ctrls.perBankRdBursts::14               38                       # Per bank write bursts
system.mem_ctrls.perBankRdBursts::15               55                       # Per bank write bursts
system.mem_ctrls.perBankWrBursts::0                 0                       # Per bank write bursts
system.mem_ctrls.perBankWrBursts::1                 0                       # Per bank write bursts
system.mem_ctrls.perBankWrBursts::2                 0                       # Per bank write bursts
system.mem_ctrls.perBankWrBursts::3                 0                       # Per bank write bursts
system.mem_ctrls.perBankWrBursts::4                 0                       # Per bank write bursts
system.mem_ctrls.perBankWrBursts::5                 0                       # Per bank write bursts
system.mem_ctrls.perBankWrBursts::6                 0                       # Per bank write bursts
system.mem_ctrls.perBankWrBursts::7                 0                       # Per bank write bursts
system.mem_ctrls.perBankWrBursts::8                 0                       # Per bank write bursts
system.mem_ctrls.perBankWrBursts::9                 0                       # Per bank write bursts
system.mem_ctrls.perBankWrBursts::10                0                       # Per bank write bursts
system.mem_ctrls.perBankWrBursts::11                0                       # Per bank write bursts
system.mem_ctrls.perBankWrBursts::12                0                       # Per bank write bursts
system.mem_ctrls.perBankWrBursts::13                0                       # Per bank write bursts
system.mem_ctrls.perBankWrBursts::14                0                       # Per bank write bursts
system.mem_ctrls.perBankWrBursts::15                0                       # Per bank write bursts
system.mem_ctrls.numRdRetry                         0                       # Number of times read queue was full causing retry
system.mem_ctrls.numWrRetry                         0                       # Number of times write queue was full causing retry
system.mem_ctrls.totGap                      46531500                       # Total gap between requests
system.mem_ctrls.readPktSize::0                     0                       # Read request sizes (log2)
system.mem_ctrls.readPktSize::1                     0                       # Read request sizes (log2)
system.mem_ctrls.readPktSize::2                     0                       # Read request sizes (log2)
system.mem_ctrls.readPktSize::3                     0                       # Read request sizes (log2)
system.mem_ctrls.readPktSize::4                     0                       # Read request sizes (log2)
system.mem_ctrls.readPktSize::5                     0                       # Read request sizes (log2)
system.mem_ctrls.readPktSize::6                   946                       # Read request sizes (log2)
system.mem_ctrls.writePktSize::0                    0                       # Write request sizes (log2)
system.mem_ctrls.writePktSize::1                    0                       # Write request sizes (log2)
system.mem_ctrls.writePktSize::2                    0                       # Write request sizes (log2)
system.mem_ctrls.writePktSize::3                    0                       # Write request sizes (log2)
system.mem_ctrls.writePktSize::4                    0                       # Write request sizes (log2)
system.mem_ctrls.writePktSize::5                    0                       # Write request sizes (log2)
system.mem_ctrls.writePktSize::6                    0                       # Write request sizes (log2)
system.mem_ctrls.rdQLenPdf::0                     470                       # What read queue length does an incoming req see
system.mem_ctrls.rdQLenPdf::1                     322                       # What read queue length does an incoming req see
system.mem_ctrls.rdQLenPdf::2                      72                       # What read queue length does an incoming req see
system.mem_ctrls.rdQLenPdf::3                      31                       # What read queue length does an incoming req see
system.mem_ctrls.rdQLenPdf::4                      18                       # What read queue length does an incoming req see
system.mem_ctrls.rdQLenPdf::5                      10                       # What read queue length does an incoming req see
system.mem_ctrls.rdQLenPdf::6                       8                       # What read queue length does an incoming req see
system.mem_ctrls.rdQLenPdf::7                       8                       # What read queue length does an incoming req see
system.mem_ctrls.rdQLenPdf::8                       6                       # What read queue length does an incoming req see
system.mem_ctrls.rdQLenPdf::9                       1                       # What read queue length does an incoming req see
system.mem_ctrls.rdQLenPdf::10                      0                       # What read queue length does an incoming req see
system.mem_ctrls.rdQLenPdf::11                      0                       # What read queue length does an incoming req see
system.mem_ctrls.rdQLenPdf::12                      0                       # What read queue length does an incoming req see
system.mem_ctrls.rdQLenPdf::13                      0                       # What read queue length does an incoming req see
system.mem_ctrls.rdQLenPdf::14                      0                       # What read queue length does an incoming req see
system.mem_ctrls.rdQLenPdf::15                      0                       # What read queue length does an incoming req see
system.mem_ctrls.rdQLenPdf::16                      0                       # What read queue length does an incoming req see
system.mem_ctrls.rdQLenPdf::17                      0                       # What read queue length does an incoming req see
system.mem_ctrls.rdQLenPdf::18                      0                       # What read queue length does an incoming req see
system.mem_ctrls.rdQLenPdf::19                      0                       # What read queue length does an incoming req see
system.mem_ctrls.rdQLenPdf::20                      0                       # What read queue length does an incoming req see
system.mem_ctrls.rdQLenPdf::21                      0                       # What read queue length does an incoming req see
system.mem_ctrls.rdQLenPdf::22                      0                       # What read queue length does an incoming req see
system.mem_ctrls.rdQLenPdf::23                      0                       # What read queue length does an incoming req see
system.mem_ctrls.rdQLenPdf::24                      0                       # What read queue length does an incoming req see
system.mem_ctrls.rdQLenPdf::25                      0                       # What read queue length does an incoming req see
system.mem_ctrls.rdQLenPdf::26                      0                       # What read queue length does an incoming req see
system.mem_ctrls.rdQLenPdf::27                      0                       # What read queue length does an incoming req see
system.mem_ctrls.rdQLenPdf::28                      0                       # What read queue length does an incoming req see
system.mem_ctrls.rdQLenPdf::29                      0                       # What read queue length does an incoming req see
system.mem_ctrls.rdQLenPdf::30                      0                       # What read queue length does an incoming req see
system.mem_ctrls.rdQLenPdf::31                      0                       # What read queue length does an incoming req see
system.mem_ctrls.wrQLenPdf::0                       0                       # What write queue length does an incoming req see
system.mem_ctrls.wrQLenPdf::1                       0                       # What write queue length does an incoming req see
system.mem_ctrls.wrQLenPdf::2                       0                       # What write queue length does an incoming req see
system.mem_ctrls.wrQLenPdf::3                       0                       # What write queue length does an incoming req see
system.mem_ctrls.wrQLenPdf::4                       0                       # What write queue length does an incoming req see
system.mem_ctrls.wrQLenPdf::5                       0                       # What write queue length does an incoming req see
system.mem_ctrls.wrQLenPdf::6                       0                       # What write queue length does an incoming req see
system.mem_ctrls.wrQLenPdf::7                       0                       # What write queue length does an incoming req see
system.mem_ctrls.wrQLenPdf::8                       0                       # What write queue length does an incoming req see
system.mem_ctrls.wrQLenPdf::9                       0                       # What write queue length does an incoming req see
system.mem_ctrls.wrQLenPdf::10                      0                       # What write queue length does an incoming req see
system.mem_ctrls.wrQLenPdf::11                      0                       # What write queue length does an incoming req see
system.mem_ctrls.wrQLenPdf::12                      0                       # What write queue length does an incoming req see
system.mem_ctrls.wrQLenPdf::13                      0                       # What write queue length does an incoming req see
system.mem_ctrls.wrQLenPdf::14                      0                       # What write queue length does an incoming req see
system.mem_ctrls.wrQLenPdf::15                      0                       # What write queue length does an incoming req see
system.mem_ctrls.wrQLenPdf::16                      0                       # What write queue length does an incoming req see
system.mem_ctrls.wrQLenPdf::17                      0                       # What write queue length does an incoming req see
system.mem_ctrls.wrQLenPdf::18                      0                       # What write queue length does an incoming req see
system.mem_ctrls.wrQLenPdf::19                      0                       # What write queue length does an incoming req see
system.mem_ctrls.wrQLenPdf::20                      0                       # What write queue length does an incoming req see
system.mem_ctrls.wrQLenPdf::21                      0                       # What write queue length does an incoming req see
system.mem_ctrls.wrQLenPdf::22                      0                       # What write queue length does an incoming req see
system.mem_ctrls.wrQLenPdf::23                      0                       # What write queue length does an incoming req see
system.mem_ctrls.wrQLenPdf::24                      0                       # What write queue length does an incoming req see
system.mem_ctrls.wrQLenPdf::25                      0                       # What write queue length does an incoming req see
system.mem_ctrls.wrQLenPdf::26                      0                       # What write queue length does an incoming req see
system.mem_ctrls.wrQLenPdf::27                      0                       # What write queue length does an incoming req see
system.mem_ctrls.wrQLenPdf::28                      0                       # What write queue length does an incoming req see
system.mem_ctrls.wrQLenPdf::29                      0                       # What write queue length does an incoming req see
system.mem_ctrls.wrQLenPdf::30                      0                       # What write queue length does an incoming req see
system.mem_ctrls.wrQLenPdf::31                      0                       # What write queue length does an incoming req see
system.mem_ctrls.wrQLenPdf::32                      0                       # What write queue length does an incoming req see
system.mem_ctrls.wrQLenPdf::33                      0                       # What write queue length does an incoming req see
system.mem_ctrls.wrQLenPdf::34                      0                       # What write queue length does an incoming req see
system.mem_ctrls.wrQLenPdf::35                      0                       # What write queue length does an incoming req see
system.mem_ctrls.wrQLenPdf::36                      0                       # What write queue length does an incoming req see
system.mem_ctrls.wrQLenPdf::37                      0                       # What write queue length does an incoming req see
system.mem_ctrls.wrQLenPdf::38                      0                       # What write queue length does an incoming req see
system.mem_ctrls.wrQLenPdf::39                      0                       # What write queue length does an incoming req see
system.mem_ctrls.wrQLenPdf::40                      0                       # What write queue length does an incoming req see
system.mem_ctrls.wrQLenPdf::41                      0                       # What write queue length does an incoming req see
system.mem_ctrls.wrQLenPdf::42                      0                       # What write queue length does an incoming req see
system.mem_ctrls.wrQLenPdf::43                      0                       # What write queue length does an incoming req see
system.mem_ctrls.wrQLenPdf::44                      0                       # What write queue length does an incoming req see
system.mem_ctrls.wrQLenPdf::45                      0                       # What write queue length does an incoming req see
system.mem_ctrls.wrQLenPdf::46                      0                       # What write queue length does an incoming req see
system.mem_ctrls.wrQLenPdf::47                      0                       # What write queue length does an incoming req see
system.mem_ctrls.wrQLenPdf::48                      0                       # What write queue length does an incoming req see
system.mem_ctrls.wrQLenPdf::49                      0                       # What write queue length does an incoming req see
system.mem_ctrls.wrQLenPdf::50                      0                       # What write queue length does an incoming req see
system.mem_ctrls.wrQLenPdf::51                      0                       # What write queue length does an incoming req see
system.mem_ctrls.wrQLenPdf::52                      0                       # What write queue length does an incoming req see
system.mem_ctrls.wrQLenPdf::53                      0                       # What write queue length does an incoming req see
system.mem_ctrls.wrQLenPdf::54                      0                       # What write queue length does an incoming req see
system.mem_ctrls.wrQLenPdf::55                      0                       # What write queue length does an incoming req see
system.mem_ctrls.wrQLenPdf::56                      0                       # What write queue length does an incoming req see
system.mem_ctrls.wrQLenPdf::57                      0                       # What write queue length does an incoming req see
system.mem_ctrls.wrQLenPdf::58                      0                       # What write queue length does an incoming req see
system.mem_ctrls.wrQLenPdf::59                      0                       # What write queue length does an incoming req see
system.mem_ctrls.wrQLenPdf::60                      0                       # What write queue length does an incoming req see
system.mem_ctrls.wrQLenPdf::61                      0                       # What write queue length does an incoming req see
system.mem_ctrls.wrQLenPdf::62                      0                       # What write queue length does an incoming req see
system.mem_ctrls.wrQLenPdf::63                      0                       # What write queue length does an incoming req see
system.mem_ctrls.bytesPerActivate::samples          224                       # Bytes accessed per row activation
system.mem_ctrls.bytesPerActivate::mean    260.857143                       # Bytes accessed per row activation
system.mem_ctrls.bytesPerActivate::gmean   150.841897                       # Bytes accessed per row activation
system.mem_ctrls.bytesPerActivate::stdev   304.008227                       # Bytes accessed per row activation
system.mem_ctrls.bytesPerActivate::0-127          106     47.32%     47.32% # Bytes accessed per row activation
system.mem_ctrls.bytesPerActivate::128-255           47     20.98%     68.30% # Bytes accessed per row activation
system.mem_ctrls.bytesPerActivate::256-383           21      9.38%     77.68% # Bytes accessed per row activation
system.mem_ctrls.bytesPerActivate::384-511            7      3.12%     80.80% # Bytes accessed per row activation
system.mem_ctrls.bytesPerActivate::512-639            9      4.02%     84.82% # Bytes accessed per row activation
system.mem_ctrls.bytesPerActivate::640-767            6      2.68%     87.50% # Bytes accessed per row activation
system.mem_ctrls.bytesPerActivate::768-895            7      3.12%     90.62% # Bytes accessed per row activation
system.mem_ctrls.bytesPerActivate::896-1023            2      0.89%     91.52% # Bytes accessed per row activation
system.mem_ctrls.bytesPerActivate::1024-1151           19      8.48%    100.00% # Bytes accessed per row activation
system.mem_ctrls.bytesPerActivate::total          224                       # Bytes accessed per row activation
system.mem_ctrls.totQLat                     14527531                       # Total ticks spent queuing
system.mem_ctrls.totMemAccLat                32265031                       # Total ticks spent from burst creation until serviced by the DRAM
system.mem_ctrls.totBusLat                    4730000                       # Total ticks spent in databus transfers
system.mem_ctrls.avgQLat                     15356.80                       # Average queueing delay per DRAM burst
system.mem_ctrls.avgBusLat                    5000.00                       # Average bus latency per DRAM burst
system.mem_ctrls.avgMemAccLat                34106.80                       # Average memory access latency per DRAM burst
system.mem_ctrls.avgRdBW                      1300.05                       # Average DRAM read bandwidth in MiByte/s
system.mem_ctrls.avgWrBW                         0.00                       # Average achieved write bandwidth in MiByte/s
system.mem_ctrls.avgRdBWSys                   1300.05                       # Average system read bandwidth in MiByte/s
system.mem_ctrls.avgWrBWSys                      0.00                       # Average system write bandwidth in MiByte/s
system.mem_ctrls.peakBW                      12800.00                       # Theoretical peak bandwidth in MiByte/s
system.mem_ctrls.busUtil                        10.16                       # Data bus utilization in percentage
system.mem_ctrls.busUtilRead                    10.16                       # Data bus utilization in percentage for reads
system.mem_ctrls.busUtilWrite                    0.00                       # Data bus utilization in percentage for writes
system.mem_ctrls.avgRdQLen                       1.74                       # Average read queue length when enqueuing
system.mem_ctrls.avgWrQLen                       0.00                       # Average write queue length when enqueuing
system.mem_ctrls.readRowHits                      712                       # Number of row buffer hits during reads
system.mem_ctrls.writeRowHits                       0                       # Number of row buffer hits during writes
system.mem_ctrls.readRowHitRate                 75.26                       # Row buffer hit rate for reads
system.mem_ctrls.writeRowHitRate                  nan                       # Row buffer hit rate for writes
system.mem_ctrls.avgGap                      49187.63                       # Average gap between requests
system.mem_ctrls.pageHitRate                    75.26                       # Row buffer hit rate, read and write combined
system.mem_ctrls_0.actEnergy                  1232280                       # Energy for activate commands per rank (pJ)
system.mem_ctrls_0.preEnergy                   672375                       # Energy for precharge commands per rank (pJ)
system.mem_ctrls_0.readEnergy                 5545800                       # Energy for read commands per rank (pJ)
system.mem_ctrls_0.writeEnergy                      0                       # Energy for write commands per rank (pJ)
system.mem_ctrls_0.refreshEnergy              2542800                       # Energy for refresh commands per rank (pJ)
system.mem_ctrls_0.actBackEnergy             26251920                       # Energy for active background per rank (pJ)
system.mem_ctrls_0.preBackEnergy               510750                       # Energy for precharge background per rank (pJ)
system.mem_ctrls_0.totalEnergy               36755925                       # Total energy per rank (pJ)
system.mem_ctrls_0.averagePower            936.904254                       # Core power per rank (mW)
system.mem_ctrls_0.memoryStateTime::IDLE       726250                       # Time in different power states
system.mem_ctrls_0.memoryStateTime::REF       1300000                       # Time in different power states
system.mem_ctrls_0.memoryStateTime::PRE_PDN            0                       # Time in different power states
system.mem_ctrls_0.memoryStateTime::ACT      37218250                       # Time in different power states
system.mem_ctrls_0.memoryStateTime::ACT_PDN            0                       # Time in different power states
system.mem_ctrls_1.actEnergy                   204120                       # Energy for activate commands per rank (pJ)
system.mem_ctrls_1.preEnergy                   111375                       # Energy for precharge commands per rank (pJ)
system.mem_ctrls_1.readEnergy                 1037400                       # Energy for read commands per rank (pJ)
system.mem_ctrls_1.writeEnergy                      0                       # Energy for write commands per rank (pJ)
system.mem_ctrls_1.refreshEnergy              2542800                       # Energy for refresh commands per rank (pJ)
system.mem_ctrls_1.actBackEnergy             25436250                       # Energy for active background per rank (pJ)
system.mem_ctrls_1.preBackEnergy              1202250                       # Energy for precharge background per rank (pJ)
system.mem_ctrls_1.totalEnergy               30534195                       # Total energy per rank (pJ)
system.mem_ctrls_1.averagePower            779.107454                       # Core power per rank (mW)
system.mem_ctrls_1.memoryStateTime::IDLE      6595750                       # Time in different power states
system.mem_ctrls_1.memoryStateTime::REF       1300000                       # Time in different power states
system.mem_ctrls_1.memoryStateTime::PRE_PDN            0                       # Time in different power states
system.mem_ctrls_1.memoryStateTime::ACT      36040750                       # Time in different power states
system.mem_ctrls_1.memoryStateTime::ACT_PDN            0                       # Time in different power states
system.cpu0.branchPred.lookups                   8577                       # Number of BP lookups
system.cpu0.branchPred.condPredicted             6297                       # Number of conditional branches predicted
system.cpu0.branchPred.condIncorrect             1325                       # Number of conditional branches incorrect
system.cpu0.branchPred.BTBLookups                3368                       # Number of BTB lookups
system.cpu0.branchPred.BTBHits                   2612                       # Number of BTB hits
system.cpu0.branchPred.BTBCorrect                   0                       # Number of correct BTB predictions (this stat may not work properly.
system.cpu0.branchPred.BTBHitPct            77.553444                       # BTB Hit Percentage
system.cpu0.branchPred.usedRAS                    778                       # Number of times the RAS was used to get a target.
system.cpu0.branchPred.RASInCorrect                 7                       # Number of incorrect RAS predictions.
system.cpu_voltage_domain.voltage                   1                       # Voltage in Volts
system.cpu_clk_domain.clock                       500                       # Clock period in ticks
system.cpu0.dstage2_mmu.stage2_tlb.walker.walks            0                       # Table walker walks requested
system.cpu0.dstage2_mmu.stage2_tlb.walker.walkRequestOrigin_Requested::Data            0                       # Table walker requests started/completed, data/inst
system.cpu0.dstage2_mmu.stage2_tlb.walker.walkRequestOrigin_Requested::Inst            0                       # Table walker requests started/completed, data/inst
system.cpu0.dstage2_mmu.stage2_tlb.walker.walkRequestOrigin_Requested::total            0                       # Table walker requests started/completed, data/inst
system.cpu0.dstage2_mmu.stage2_tlb.walker.walkRequestOrigin_Completed::Data            0                       # Table walker requests started/completed, data/inst
system.cpu0.dstage2_mmu.stage2_tlb.walker.walkRequestOrigin_Completed::Inst            0                       # Table walker requests started/completed, data/inst
system.cpu0.dstage2_mmu.stage2_tlb.walker.walkRequestOrigin_Completed::total            0                       # Table walker requests started/completed, data/inst
system.cpu0.dstage2_mmu.stage2_tlb.walker.walkRequestOrigin::total            0                       # Table walker requests started/completed, data/inst
system.cpu0.dstage2_mmu.stage2_tlb.inst_hits            0                       # ITB inst hits
system.cpu0.dstage2_mmu.stage2_tlb.inst_misses            0                       # ITB inst misses
system.cpu0.dstage2_mmu.stage2_tlb.read_hits            0                       # DTB read hits
system.cpu0.dstage2_mmu.stage2_tlb.read_misses            0                       # DTB read misses
system.cpu0.dstage2_mmu.stage2_tlb.write_hits            0                       # DTB write hits
system.cpu0.dstage2_mmu.stage2_tlb.write_misses            0                       # DTB write misses
system.cpu0.dstage2_mmu.stage2_tlb.flush_tlb            0                       # Number of times complete TLB was flushed
system.cpu0.dstage2_mmu.stage2_tlb.flush_tlb_mva            0                       # Number of times TLB was flushed by MVA
system.cpu0.dstage2_mmu.stage2_tlb.flush_tlb_mva_asid            0                       # Number of times TLB was flushed by MVA & ASID
system.cpu0.dstage2_mmu.stage2_tlb.flush_tlb_asid            0                       # Number of times TLB was flushed by ASID
system.cpu0.dstage2_mmu.stage2_tlb.flush_entries            0                       # Number of entries that have been flushed from TLB
system.cpu0.dstage2_mmu.stage2_tlb.align_faults            0                       # Number of TLB faults due to alignment restrictions
system.cpu0.dstage2_mmu.stage2_tlb.prefetch_faults            0                       # Number of TLB faults due to prefetch
system.cpu0.dstage2_mmu.stage2_tlb.domain_faults            0                       # Number of TLB faults due to domain restrictions
system.cpu0.dstage2_mmu.stage2_tlb.perms_faults            0                       # Number of TLB faults due to permissions restrictions
system.cpu0.dstage2_mmu.stage2_tlb.read_accesses            0                       # DTB read accesses
system.cpu0.dstage2_mmu.stage2_tlb.write_accesses            0                       # DTB write accesses
system.cpu0.dstage2_mmu.stage2_tlb.inst_accesses            0                       # ITB inst accesses
system.cpu0.dstage2_mmu.stage2_tlb.hits             0                       # DTB hits
system.cpu0.dstage2_mmu.stage2_tlb.misses            0                       # DTB misses
system.cpu0.dstage2_mmu.stage2_tlb.accesses            0                       # DTB accesses
system.cpu0.dtb.walker.walks                        0                       # Table walker walks requested
system.cpu0.dtb.walker.walkRequestOrigin_Requested::Data            0                       # Table walker requests started/completed, data/inst
system.cpu0.dtb.walker.walkRequestOrigin_Requested::Inst            0                       # Table walker requests started/completed, data/inst
system.cpu0.dtb.walker.walkRequestOrigin_Requested::total            0                       # Table walker requests started/completed, data/inst
system.cpu0.dtb.walker.walkRequestOrigin_Completed::Data            0                       # Table walker requests started/completed, data/inst
system.cpu0.dtb.walker.walkRequestOrigin_Completed::Inst            0                       # Table walker requests started/completed, data/inst
system.cpu0.dtb.walker.walkRequestOrigin_Completed::total            0                       # Table walker requests started/completed, data/inst
system.cpu0.dtb.walker.walkRequestOrigin::total            0                       # Table walker requests started/completed, data/inst
system.cpu0.dtb.inst_hits                           0                       # ITB inst hits
system.cpu0.dtb.inst_misses                         0                       # ITB inst misses
system.cpu0.dtb.read_hits                           0                       # DTB read hits
system.cpu0.dtb.read_misses                         0                       # DTB read misses
system.cpu0.dtb.write_hits                          0                       # DTB write hits
system.cpu0.dtb.write_misses                        0                       # DTB write misses
system.cpu0.dtb.flush_tlb                           0                       # Number of times complete TLB was flushed
system.cpu0.dtb.flush_tlb_mva                       0                       # Number of times TLB was flushed by MVA
system.cpu0.dtb.flush_tlb_mva_asid                  0                       # Number of times TLB was flushed by MVA & ASID
system.cpu0.dtb.flush_tlb_asid                      0                       # Number of times TLB was flushed by ASID
system.cpu0.dtb.flush_entries                       0                       # Number of entries that have been flushed from TLB
system.cpu0.dtb.align_faults                        0                       # Number of TLB faults due to alignment restrictions
system.cpu0.dtb.prefetch_faults                     0                       # Number of TLB faults due to prefetch
system.cpu0.dtb.domain_faults                       0                       # Number of TLB faults due to domain restrictions
system.cpu0.dtb.perms_faults                        0                       # Number of TLB faults due to permissions restrictions
system.cpu0.dtb.read_accesses                       0                       # DTB read accesses
system.cpu0.dtb.write_accesses                      0                       # DTB write accesses
system.cpu0.dtb.inst_accesses                       0                       # ITB inst accesses
system.cpu0.dtb.hits                                0                       # DTB hits
system.cpu0.dtb.misses                              0                       # DTB misses
system.cpu0.dtb.accesses                            0                       # DTB accesses
system.cpu0.istage2_mmu.stage2_tlb.walker.walks            0                       # Table walker walks requested
system.cpu0.istage2_mmu.stage2_tlb.walker.walkRequestOrigin_Requested::Data            0                       # Table walker requests started/completed, data/inst
system.cpu0.istage2_mmu.stage2_tlb.walker.walkRequestOrigin_Requested::Inst            0                       # Table walker requests started/completed, data/inst
system.cpu0.istage2_mmu.stage2_tlb.walker.walkRequestOrigin_Requested::total            0                       # Table walker requests started/completed, data/inst
system.cpu0.istage2_mmu.stage2_tlb.walker.walkRequestOrigin_Completed::Data            0                       # Table walker requests started/completed, data/inst
system.cpu0.istage2_mmu.stage2_tlb.walker.walkRequestOrigin_Completed::Inst            0                       # Table walker requests started/completed, data/inst
system.cpu0.istage2_mmu.stage2_tlb.walker.walkRequestOrigin_Completed::total            0                       # Table walker requests started/completed, data/inst
system.cpu0.istage2_mmu.stage2_tlb.walker.walkRequestOrigin::total            0                       # Table walker requests started/completed, data/inst
system.cpu0.istage2_mmu.stage2_tlb.inst_hits            0                       # ITB inst hits
system.cpu0.istage2_mmu.stage2_tlb.inst_misses            0                       # ITB inst misses
system.cpu0.istage2_mmu.stage2_tlb.read_hits            0                       # DTB read hits
system.cpu0.istage2_mmu.stage2_tlb.read_misses            0                       # DTB read misses
system.cpu0.istage2_mmu.stage2_tlb.write_hits            0                       # DTB write hits
system.cpu0.istage2_mmu.stage2_tlb.write_misses            0                       # DTB write misses
system.cpu0.istage2_mmu.stage2_tlb.flush_tlb            0                       # Number of times complete TLB was flushed
system.cpu0.istage2_mmu.stage2_tlb.flush_tlb_mva            0                       # Number of times TLB was flushed by MVA
system.cpu0.istage2_mmu.stage2_tlb.flush_tlb_mva_asid            0                       # Number of times TLB was flushed by MVA & ASID
system.cpu0.istage2_mmu.stage2_tlb.flush_tlb_asid            0                       # Number of times TLB was flushed by ASID
system.cpu0.istage2_mmu.stage2_tlb.flush_entries            0                       # Number of entries that have been flushed from TLB
system.cpu0.istage2_mmu.stage2_tlb.align_faults            0                       # Number of TLB faults due to alignment restrictions
system.cpu0.istage2_mmu.stage2_tlb.prefetch_faults            0                       # Number of TLB faults due to prefetch
system.cpu0.istage2_mmu.stage2_tlb.domain_faults            0                       # Number of TLB faults due to domain restrictions
system.cpu0.istage2_mmu.stage2_tlb.perms_faults            0                       # Number of TLB faults due to permissions restrictions
system.cpu0.istage2_mmu.stage2_tlb.read_accesses            0                       # DTB read accesses
system.cpu0.istage2_mmu.stage2_tlb.write_accesses            0                       # DTB write accesses
system.cpu0.istage2_mmu.stage2_tlb.inst_accesses            0                       # ITB inst accesses
system.cpu0.istage2_mmu.stage2_tlb.hits             0                       # DTB hits
system.cpu0.istage2_mmu.stage2_tlb.misses            0                       # DTB misses
system.cpu0.istage2_mmu.stage2_tlb.accesses            0                       # DTB accesses
system.cpu0.itb.walker.walks                        0                       # Table walker walks requested
system.cpu0.itb.walker.walkRequestOrigin_Requested::Data            0                       # Table walker requests started/completed, data/inst
system.cpu0.itb.walker.walkRequestOrigin_Requested::Inst            0                       # Table walker requests started/completed, data/inst
system.cpu0.itb.walker.walkRequestOrigin_Requested::total            0                       # Table walker requests started/completed, data/inst
system.cpu0.itb.walker.walkRequestOrigin_Completed::Data            0                       # Table walker requests started/completed, data/inst
system.cpu0.itb.walker.walkRequestOrigin_Completed::Inst            0                       # Table walker requests started/completed, data/inst
system.cpu0.itb.walker.walkRequestOrigin_Completed::total            0                       # Table walker requests started/completed, data/inst
system.cpu0.itb.walker.walkRequestOrigin::total            0                       # Table walker requests started/completed, data/inst
system.cpu0.itb.inst_hits                           0                       # ITB inst hits
system.cpu0.itb.inst_misses                         0                       # ITB inst misses
system.cpu0.itb.read_hits                           0                       # DTB read hits
system.cpu0.itb.read_misses                         0                       # DTB read misses
system.cpu0.itb.write_hits                          0                       # DTB write hits
system.cpu0.itb.write_misses                        0                       # DTB write misses
system.cpu0.itb.flush_tlb                           0                       # Number of times complete TLB was flushed
system.cpu0.itb.flush_tlb_mva                       0                       # Number of times TLB was flushed by MVA
system.cpu0.itb.flush_tlb_mva_asid                  0                       # Number of times TLB was flushed by MVA & ASID
system.cpu0.itb.flush_tlb_asid                      0                       # Number of times TLB was flushed by ASID
system.cpu0.itb.flush_entries                       0                       # Number of entries that have been flushed from TLB
system.cpu0.itb.align_faults                        0                       # Number of TLB faults due to alignment restrictions
system.cpu0.itb.prefetch_faults                     0                       # Number of TLB faults due to prefetch
system.cpu0.itb.domain_faults                       0                       # Number of TLB faults due to domain restrictions
system.cpu0.itb.perms_faults                        0                       # Number of TLB faults due to permissions restrictions
system.cpu0.itb.read_accesses                       0                       # DTB read accesses
system.cpu0.itb.write_accesses                      0                       # DTB write accesses
system.cpu0.itb.inst_accesses                       0                       # ITB inst accesses
system.cpu0.itb.hits                                0                       # DTB hits
system.cpu0.itb.misses                              0                       # DTB misses
system.cpu0.itb.accesses                            0                       # DTB accesses
system.cpu0.workload.num_syscalls                 127                       # Number of system calls
system.cpu0.numCycles                           93142                       # number of cpu cycles simulated
system.cpu0.numWorkItemsStarted                     0                       # number of work items this cpu started
system.cpu0.numWorkItemsCompleted                   0                       # number of work items this cpu completed
system.cpu0.fetch.icacheStallCycles             14700                       # Number of cycles fetch is stalled on an Icache miss
system.cpu0.fetch.Insts                         52453                       # Number of instructions fetch has processed
system.cpu0.fetch.Branches                       8577                       # Number of branches that fetch encountered
system.cpu0.fetch.predictedBranches              3390                       # Number of branches that fetch has predicted taken
system.cpu0.fetch.Cycles                        37021                       # Number of cycles fetch has run and was not squashing or blocked
system.cpu0.fetch.SquashCycles                   2733                       # Number of cycles fetch has spent squashing
system.cpu0.fetch.MiscStallCycles                 383                       # Number of cycles fetch has spent waiting on interrupts, or bad addresses, or out of MSHRs
system.cpu0.fetch.PendingTrapStallCycles          109                       # Number of stall cycles due to pending traps
system.cpu0.fetch.IcacheWaitRetryStallCycles          562                       # Number of stall cycles due to full MSHR
system.cpu0.fetch.CacheLines                    16553                       # Number of cache lines fetched
system.cpu0.fetch.IcacheSquashes                  349                       # Number of outstanding Icache misses that were squashed
system.cpu0.fetch.rateDist::samples             54141                       # Number of instructions fetched each cycle (Total)
system.cpu0.fetch.rateDist::mean             1.139746                       # Number of instructions fetched each cycle (Total)
system.cpu0.fetch.rateDist::stdev            1.279305                       # Number of instructions fetched each cycle (Total)
system.cpu0.fetch.rateDist::underflows              0      0.00%      0.00% # Number of instructions fetched each cycle (Total)
system.cpu0.fetch.rateDist::0                   25784     47.62%     47.62% # Number of instructions fetched each cycle (Total)
system.cpu0.fetch.rateDist::1                   10272     18.97%     66.60% # Number of instructions fetched each cycle (Total)
system.cpu0.fetch.rateDist::2                    2820      5.21%     71.81% # Number of instructions fetched each cycle (Total)
system.cpu0.fetch.rateDist::3                   15265     28.19%    100.00% # Number of instructions fetched each cycle (Total)
system.cpu0.fetch.rateDist::overflows               0      0.00%    100.00% # Number of instructions fetched each cycle (Total)
system.cpu0.fetch.rateDist::min_value               0                       # Number of instructions fetched each cycle (Total)
system.cpu0.fetch.rateDist::max_value               3                       # Number of instructions fetched each cycle (Total)
system.cpu0.fetch.rateDist::total               54141                       # Number of instructions fetched each cycle (Total)
system.cpu0.fetch.branchRate                 0.092085                       # Number of branch fetches per cycle
system.cpu0.fetch.rate                       0.563151                       # Number of inst fetches per cycle
system.cpu0.decode.IdleCycles                   13116                       # Number of cycles decode is idle
system.cpu0.decode.BlockedCycles                15078                       # Number of cycles decode is blocked
system.cpu0.decode.RunCycles                    23942                       # Number of cycles decode is running
system.cpu0.decode.UnblockCycles                  959                       # Number of cycles decode is unblocking
system.cpu0.decode.SquashCycles                  1046                       # Number of cycles decode is squashing
system.cpu0.decode.BranchResolved                 908                       # Number of times decode resolved a branch
system.cpu0.decode.BranchMispred                  342                       # Number of times decode detected a branch misprediction
system.cpu0.decode.DecodedInsts                 51911                       # Number of instructions handled by decode
system.cpu0.decode.SquashedInsts                 4754                       # Number of squashed instructions handled by decode
system.cpu0.rename.SquashCycles                  1046                       # Number of cycles rename is squashing
system.cpu0.rename.IdleCycles                   16731                       # Number of cycles rename is idle
system.cpu0.rename.BlockCycles                   2977                       # Number of cycles rename is blocking
system.cpu0.rename.serializeStallCycles          7626                       # count of cycles rename stalled for serializing inst
system.cpu0.rename.RunCycles                    21274                       # Number of cycles rename is running
system.cpu0.rename.UnblockCycles                 4487                       # Number of cycles rename is unblocking
system.cpu0.rename.RenamedInsts                 48250                       # Number of instructions processed by rename
system.cpu0.rename.SquashedInsts                 1703                       # Number of squashed instructions processed by rename
system.cpu0.rename.ROBFullEvents                   68                       # Number of times rename has blocked due to ROB full
system.cpu0.rename.IQFullEvents                    10                       # Number of times rename has blocked due to IQ full
system.cpu0.rename.LQFullEvents                    11                       # Number of times rename has blocked due to LQ full
system.cpu0.rename.SQFullEvents                  3944                       # Number of times rename has blocked due to SQ full
system.cpu0.rename.RenamedOperands              53486                       # Number of destination operands rename has renamed
system.cpu0.rename.RenameLookups               231585                       # Number of register rename lookups that rename has made
system.cpu0.rename.int_rename_lookups           65426                       # Number of integer rename lookups
system.cpu0.rename.fp_rename_lookups               22                       # Number of floating rename lookups
system.cpu0.rename.CommittedMaps                42003                       # Number of HB maps that are committed
system.cpu0.rename.UndoneMaps                   11483                       # Number of HB maps that are undone due to squashing
system.cpu0.rename.serializingInsts               108                       # count of serializing insts renamed
system.cpu0.rename.tempSerializingInsts           106                       # count of temporary serializing insts renamed
system.cpu0.rename.skidInsts                     2199                       # count of insts added to the skid buffer
system.cpu0.memDep0.insertedLoads                7303                       # Number of loads inserted to the mem dependence unit.
system.cpu0.memDep0.insertedStores               7571                       # Number of stores inserted to the mem dependence unit.
system.cpu0.memDep0.conflictingLoads              232                       # Number of conflicting loads.
system.cpu0.memDep0.conflictingStores             116                       # Number of conflicting stores.
system.cpu0.iq.iqInstsAdded                     46336                       # Number of instructions added to the IQ (excludes non-spec)
system.cpu0.iq.iqNonSpecInstsAdded                239                       # Number of non-speculative instructions added to the IQ
system.cpu0.iq.iqInstsIssued                    43198                       # Number of instructions issued
system.cpu0.iq.iqSquashedInstsIssued              459                       # Number of squashed instructions issued
system.cpu0.iq.iqSquashedInstsExamined           8774                       # Number of squashed instructions iterated over during squash; mainly for profiling
system.cpu0.iq.iqSquashedOperandsExamined        21871                       # Number of squashed operands that are examined and possibly removed from graph
system.cpu0.iq.iqSquashedNonSpecRemoved            42                       # Number of squashed non-spec instructions that were removed
system.cpu0.iq.issued_per_cycle::samples        54141                       # Number of insts issued each cycle
system.cpu0.iq.issued_per_cycle::mean        0.797880                       # Number of insts issued each cycle
system.cpu0.iq.issued_per_cycle::stdev       1.097679                       # Number of insts issued each cycle
system.cpu0.iq.issued_per_cycle::underflows            0      0.00%      0.00% # Number of insts issued each cycle
system.cpu0.iq.issued_per_cycle::0              31948     59.01%     59.01% # Number of insts issued each cycle
system.cpu0.iq.issued_per_cycle::1               7928     14.64%     73.65% # Number of insts issued each cycle
system.cpu0.iq.issued_per_cycle::2               8028     14.83%     88.48% # Number of insts issued each cycle
system.cpu0.iq.issued_per_cycle::3               5737     10.60%     99.08% # Number of insts issued each cycle
system.cpu0.iq.issued_per_cycle::4                497      0.92%     99.99% # Number of insts issued each cycle
system.cpu0.iq.issued_per_cycle::5                  3      0.01%    100.00% # Number of insts issued each cycle
system.cpu0.iq.issued_per_cycle::6                  0      0.00%    100.00% # Number of insts issued each cycle
system.cpu0.iq.issued_per_cycle::7                  0      0.00%    100.00% # Number of insts issued each cycle
system.cpu0.iq.issued_per_cycle::8                  0      0.00%    100.00% # Number of insts issued each cycle
system.cpu0.iq.issued_per_cycle::overflows            0      0.00%    100.00% # Number of insts issued each cycle
system.cpu0.iq.issued_per_cycle::min_value            0                       # Number of insts issued each cycle
system.cpu0.iq.issued_per_cycle::max_value            5                       # Number of insts issued each cycle
system.cpu0.iq.issued_per_cycle::total          54141                       # Number of insts issued each cycle
system.cpu0.iq.fu_full::No_OpClass                  0      0.00%      0.00% # attempts to use FU when none available
system.cpu0.iq.fu_full::IntAlu                   2352     28.76%     28.76% # attempts to use FU when none available
system.cpu0.iq.fu_full::IntMult                    56      0.68%     29.45% # attempts to use FU when none available
system.cpu0.iq.fu_full::IntDiv                      0      0.00%     29.45% # attempts to use FU when none available
system.cpu0.iq.fu_full::FloatAdd                    0      0.00%     29.45% # attempts to use FU when none available
system.cpu0.iq.fu_full::FloatCmp                    0      0.00%     29.45% # attempts to use FU when none available
system.cpu0.iq.fu_full::FloatCvt                    0      0.00%     29.45% # attempts to use FU when none available
system.cpu0.iq.fu_full::FloatMult                   0      0.00%     29.45% # attempts to use FU when none available
system.cpu0.iq.fu_full::FloatDiv                    0      0.00%     29.45% # attempts to use FU when none available
system.cpu0.iq.fu_full::FloatSqrt                   0      0.00%     29.45% # attempts to use FU when none available
system.cpu0.iq.fu_full::SimdAdd                     0      0.00%     29.45% # attempts to use FU when none available
system.cpu0.iq.fu_full::SimdAddAcc                  0      0.00%     29.45% # attempts to use FU when none available
system.cpu0.iq.fu_full::SimdAlu                     0      0.00%     29.45% # attempts to use FU when none available
system.cpu0.iq.fu_full::SimdCmp                     0      0.00%     29.45% # attempts to use FU when none available
system.cpu0.iq.fu_full::SimdCvt                     0      0.00%     29.45% # attempts to use FU when none available
system.cpu0.iq.fu_full::SimdMisc                    0      0.00%     29.45% # attempts to use FU when none available
system.cpu0.iq.fu_full::SimdMult                    0      0.00%     29.45% # attempts to use FU when none available
system.cpu0.iq.fu_full::SimdMultAcc                 0      0.00%     29.45% # attempts to use FU when none available
system.cpu0.iq.fu_full::SimdShift                   0      0.00%     29.45% # attempts to use FU when none available
system.cpu0.iq.fu_full::SimdShiftAcc                0      0.00%     29.45% # attempts to use FU when none available
system.cpu0.iq.fu_full::SimdSqrt                    0      0.00%     29.45% # attempts to use FU when none available
system.cpu0.iq.fu_full::SimdFloatAdd                0      0.00%     29.45% # attempts to use FU when none available
system.cpu0.iq.fu_full::SimdFloatAlu                0      0.00%     29.45% # attempts to use FU when none available
system.cpu0.iq.fu_full::SimdFloatCmp                0      0.00%     29.45% # attempts to use FU when none available
system.cpu0.iq.fu_full::SimdFloatCvt                0      0.00%     29.45% # attempts to use FU when none available
system.cpu0.iq.fu_full::SimdFloatDiv                0      0.00%     29.45% # attempts to use FU when none available
system.cpu0.iq.fu_full::SimdFloatMisc               0      0.00%     29.45% # attempts to use FU when none available
system.cpu0.iq.fu_full::SimdFloatMult               0      0.00%     29.45% # attempts to use FU when none available
system.cpu0.iq.fu_full::SimdFloatMultAcc            0      0.00%     29.45% # attempts to use FU when none available
system.cpu0.iq.fu_full::SimdFloatSqrt               0      0.00%     29.45% # attempts to use FU when none available
system.cpu0.iq.fu_full::MemRead                  2378     29.08%     58.53% # attempts to use FU when none available
system.cpu0.iq.fu_full::MemWrite                 3391     41.47%    100.00% # attempts to use FU when none available
system.cpu0.iq.fu_full::IprAccess                   0      0.00%    100.00% # attempts to use FU when none available
system.cpu0.iq.fu_full::InstPrefetch                0      0.00%    100.00% # attempts to use FU when none available
system.cpu0.iq.FU_type_0::No_OpClass                0      0.00%      0.00% # Type of FU issued
system.cpu0.iq.FU_type_0::IntAlu                27084     62.70%     62.70% # Type of FU issued
system.cpu0.iq.FU_type_0::IntMult                2112      4.89%     67.59% # Type of FU issued
system.cpu0.iq.FU_type_0::IntDiv                    0      0.00%     67.59% # Type of FU issued
system.cpu0.iq.FU_type_0::FloatAdd                  0      0.00%     67.59% # Type of FU issued
system.cpu0.iq.FU_type_0::FloatCmp                  0      0.00%     67.59% # Type of FU issued
system.cpu0.iq.FU_type_0::FloatCvt                  0      0.00%     67.59% # Type of FU issued
system.cpu0.iq.FU_type_0::FloatMult                 0      0.00%     67.59% # Type of FU issued
system.cpu0.iq.FU_type_0::FloatDiv                  0      0.00%     67.59% # Type of FU issued
system.cpu0.iq.FU_type_0::FloatSqrt                 0      0.00%     67.59% # Type of FU issued
system.cpu0.iq.FU_type_0::SimdAdd                   0      0.00%     67.59% # Type of FU issued
system.cpu0.iq.FU_type_0::SimdAddAcc                0      0.00%     67.59% # Type of FU issued
system.cpu0.iq.FU_type_0::SimdAlu                   0      0.00%     67.59% # Type of FU issued
system.cpu0.iq.FU_type_0::SimdCmp                   0      0.00%     67.59% # Type of FU issued
system.cpu0.iq.FU_type_0::SimdCvt                   0      0.00%     67.59% # Type of FU issued
system.cpu0.iq.FU_type_0::SimdMisc                  0      0.00%     67.59% # Type of FU issued
system.cpu0.iq.FU_type_0::SimdMult                  0      0.00%     67.59% # Type of FU issued
system.cpu0.iq.FU_type_0::SimdMultAcc               0      0.00%     67.59% # Type of FU issued
system.cpu0.iq.FU_type_0::SimdShift                 0      0.00%     67.59% # Type of FU issued
system.cpu0.iq.FU_type_0::SimdShiftAcc              0      0.00%     67.59% # Type of FU issued
system.cpu0.iq.FU_type_0::SimdSqrt                  0      0.00%     67.59% # Type of FU issued
system.cpu0.iq.FU_type_0::SimdFloatAdd              0      0.00%     67.59% # Type of FU issued
system.cpu0.iq.FU_type_0::SimdFloatAlu              0      0.00%     67.59% # Type of FU issued
system.cpu0.iq.FU_type_0::SimdFloatCmp              0      0.00%     67.59% # Type of FU issued
system.cpu0.iq.FU_type_0::SimdFloatCvt              0      0.00%     67.59% # Type of FU issued
system.cpu0.iq.FU_type_0::SimdFloatDiv              0      0.00%     67.59% # Type of FU issued
system.cpu0.iq.FU_type_0::SimdFloatMisc             3      0.01%     67.59% # Type of FU issued
system.cpu0.iq.FU_type_0::SimdFloatMult             0      0.00%     67.59% # Type of FU issued
system.cpu0.iq.FU_type_0::SimdFloatMultAcc            0      0.00%     67.59% # Type of FU issued
system.cpu0.iq.FU_type_0::SimdFloatSqrt             0      0.00%     67.59% # Type of FU issued
system.cpu0.iq.FU_type_0::MemRead                6921     16.02%     83.61% # Type of FU issued
system.cpu0.iq.FU_type_0::MemWrite               7078     16.39%    100.00% # Type of FU issued
system.cpu0.iq.FU_type_0::IprAccess                 0      0.00%    100.00% # Type of FU issued
system.cpu0.iq.FU_type_0::InstPrefetch              0      0.00%    100.00% # Type of FU issued
system.cpu0.iq.FU_type_0::total                 43198                       # Type of FU issued
system.cpu0.iq.rate                          0.463786                       # Inst issue rate
system.cpu0.iq.fu_busy_cnt                       8177                       # FU busy when requested
system.cpu0.iq.fu_busy_rate                  0.189291                       # FU busy rate (busy events/executed inst)
system.cpu0.iq.int_inst_queue_reads            149096                       # Number of integer instruction queue reads
system.cpu0.iq.int_inst_queue_writes            55338                       # Number of integer instruction queue writes
system.cpu0.iq.int_inst_queue_wakeup_accesses        41025                       # Number of integer instruction queue wakeup accesses
system.cpu0.iq.fp_inst_queue_reads                 77                       # Number of floating instruction queue reads
system.cpu0.iq.fp_inst_queue_writes                28                       # Number of floating instruction queue writes
system.cpu0.iq.fp_inst_queue_wakeup_accesses           28                       # Number of floating instruction queue wakeup accesses
system.cpu0.iq.int_alu_accesses                 51326                       # Number of integer alu accesses
system.cpu0.iq.fp_alu_accesses                     49                       # Number of floating point alu accesses
system.cpu0.iew.lsq.thread0.forwLoads              51                       # Number of loads that had data forwarded from stores
system.cpu0.iew.lsq.thread0.invAddrLoads            0                       # Number of loads ignored due to an invalid address
system.cpu0.iew.lsq.thread0.squashedLoads         1901                       # Number of loads squashed
system.cpu0.iew.lsq.thread0.ignoredResponses            0                       # Number of memory responses ignored because the instruction is squashed
system.cpu0.iew.lsq.thread0.memOrderViolation           18                       # Number of memory ordering violations
system.cpu0.iew.lsq.thread0.squashedStores          915                       # Number of stores squashed
system.cpu0.iew.lsq.thread0.invAddrSwpfs            0                       # Number of software prefetches ignored due to an invalid address
system.cpu0.iew.lsq.thread0.blockedLoads            0                       # Number of blocked loads due to partial load-store forwarding
system.cpu0.iew.lsq.thread0.rescheduledLoads            7                       # Number of loads that were rescheduled
system.cpu0.iew.lsq.thread0.cacheBlocked          172                       # Number of times an access to memory failed due to the cache being blocked
system.cpu0.iew.iewIdleCycles                       0                       # Number of cycles IEW is idle
system.cpu0.iew.iewSquashCycles                  1046                       # Number of cycles IEW is squashing
system.cpu0.iew.iewBlockCycles                    564                       # Number of cycles IEW is blocking
system.cpu0.iew.iewUnblockCycles                   85                       # Number of cycles IEW is unblocking
system.cpu0.iew.iewDispatchedInsts              46589                       # Number of instructions dispatched to IQ
system.cpu0.iew.iewDispSquashedInsts                0                       # Number of squashed instructions skipped by dispatch
system.cpu0.iew.iewDispLoadInsts                 7303                       # Number of dispatched load instructions
system.cpu0.iew.iewDispStoreInsts                7571                       # Number of dispatched store instructions
system.cpu0.iew.iewDispNonSpecInsts               104                       # Number of dispatched non-speculative instructions
system.cpu0.iew.iewIQFullEvents                     1                       # Number of times the IQ has become full, causing a stall
system.cpu0.iew.iewLSQFullEvents                   84                       # Number of times the LSQ has become full, causing a stall
system.cpu0.iew.memOrderViolationEvents            18                       # Number of memory order violations
system.cpu0.iew.predictedTakenIncorrect            96                       # Number of branches that were predicted taken incorrectly
system.cpu0.iew.predictedNotTakenIncorrect          971                       # Number of branches that were predicted not taken incorrectly
system.cpu0.iew.branchMispredicts                1067                       # Number of branch mispredicts detected at execute
system.cpu0.iew.iewExecutedInsts                41619                       # Number of executed instructions
system.cpu0.iew.iewExecLoadInsts                 6367                       # Number of load instructions executed
system.cpu0.iew.iewExecSquashedInsts             1579                       # Number of squashed instructions skipped in execute
system.cpu0.iew.exec_swp                            0                       # number of swp insts executed
system.cpu0.iew.exec_nop                           14                       # number of nop insts executed
system.cpu0.iew.exec_refs                       13272                       # number of memory reference insts executed
system.cpu0.iew.exec_branches                    5182                       # Number of branches executed
system.cpu0.iew.exec_stores                      6905                       # Number of stores executed
system.cpu0.iew.exec_rate                    0.446834                       # Inst execution rate
system.cpu0.iew.wb_sent                         41177                       # cumulative count of insts sent to commit
system.cpu0.iew.wb_count                        41053                       # cumulative count of insts written-back
system.cpu0.iew.wb_producers                    21466                       # num instructions producing a value
system.cpu0.iew.wb_consumers                    39253                       # num instructions consuming a value
system.cpu0.iew.wb_penalized                        0                       # number of instrctions required to write to 'other' IQ
system.cpu0.iew.wb_rate                      0.440757                       # insts written-back per cycle
system.cpu0.iew.wb_fanout                    0.546863                       # average fanout of values written-back
system.cpu0.iew.wb_penalized_rate                   0                       # fraction of instructions written-back that wrote to 'other' IQ
system.cpu0.commit.commitSquashedInsts           7112                       # The number of squashed insts skipped by commit
system.cpu0.commit.commitNonSpecStalls            197                       # The number of times commit has been forced to stall to communicate backwards
system.cpu0.commit.branchMispredicts             1005                       # The number of times a branch was mispredicted
system.cpu0.commit.committed_per_cycle::samples        52652                       # Number of insts commited each cycle
system.cpu0.commit.committed_per_cycle::mean     0.717940                       # Number of insts commited each cycle
system.cpu0.commit.committed_per_cycle::stdev     1.473669                       # Number of insts commited each cycle
system.cpu0.commit.committed_per_cycle::underflows            0      0.00%      0.00% # Number of insts commited each cycle
system.cpu0.commit.committed_per_cycle::0        36355     69.05%     69.05% # Number of insts commited each cycle
system.cpu0.commit.committed_per_cycle::1         7550     14.34%     83.39% # Number of insts commited each cycle
system.cpu0.commit.committed_per_cycle::2         3806      7.23%     90.62% # Number of insts commited each cycle
system.cpu0.commit.committed_per_cycle::3         2050      3.89%     94.51% # Number of insts commited each cycle
system.cpu0.commit.committed_per_cycle::4          842      1.60%     96.11% # Number of insts commited each cycle
system.cpu0.commit.committed_per_cycle::5          523      0.99%     97.10% # Number of insts commited each cycle
[...]
system.l2.demand_avg_mshr_miss_latency::cpu0.data 71388.586957                       # average overall mshr miss latency
system.l2.demand_avg_mshr_miss_latency::cpu1.inst 73333.333333                       # average overall mshr miss latency
system.l2.demand_avg_mshr_miss_latency::cpu1.data       202500                       # average overall mshr miss latency
system.l2.demand_avg_mshr_miss_latency::cpu2.inst       124975                       # average overall mshr miss latency
system.l2.demand_avg_mshr_miss_latency::cpu2.data 235437.500000                       # average overall mshr miss latency
system.l2.demand_avg_mshr_miss_latency::cpu3.inst 60937.500000                       # average overall mshr miss latency
system.l2.demand_avg_mshr_miss_latency::cpu3.data       127650                       # average overall mshr miss latency
system.l2.demand_avg_mshr_miss_latency::cpu4.inst        57000                       # average overall mshr miss latency
system.l2.demand_avg_mshr_miss_latency::cpu4.data       159900                       # average overall mshr miss latency
system.l2.demand_avg_mshr_miss_latency::cpu5.inst        52250                       # average overall mshr miss latency
system.l2.demand_avg_mshr_miss_latency::cpu5.data       152125                       # average overall mshr miss latency
system.l2.demand_avg_mshr_miss_latency::cpu6.inst        52750                       # average overall mshr miss latency
system.l2.demand_avg_mshr_miss_latency::cpu6.data 127187.500000                       # average overall mshr miss latency
system.l2.demand_avg_mshr_miss_latency::cpu7.inst        52750                       # average overall mshr miss latency
system.l2.demand_avg_mshr_miss_latency::cpu7.data       145500                       # average overall mshr miss latency
system.l2.demand_avg_mshr_miss_latency::total 69134.130146                       # average overall mshr miss latency
system.l2.overall_avg_mshr_miss_latency::cpu0.inst 61797.830375                       # average overall mshr miss latency
system.l2.overall_avg_mshr_miss_latency::cpu0.data 71388.586957                       # average overall mshr miss latency
system.l2.overall_avg_mshr_miss_latency::cpu1.inst 73333.333333                       # average overall mshr miss latency
system.l2.overall_avg_mshr_miss_latency::cpu1.data       202500                       # average overall mshr miss latency
system.l2.overall_avg_mshr_miss_latency::cpu2.inst       124975                       # average overall mshr miss latency
system.l2.overall_avg_mshr_miss_latency::cpu2.data 235437.500000                       # average overall mshr miss latency
system.l2.overall_avg_mshr_miss_latency::cpu3.inst 60937.500000                       # average overall mshr miss latency
system.l2.overall_avg_mshr_miss_latency::cpu3.data       127650                       # average overall mshr miss latency
system.l2.overall_avg_mshr_miss_latency::cpu4.inst        57000                       # average overall mshr miss latency
system.l2.overall_avg_mshr_miss_latency::cpu4.data       159900                       # average overall mshr miss latency
system.l2.overall_avg_mshr_miss_latency::cpu5.inst        52250                       # average overall mshr miss latency
system.l2.overall_avg_mshr_miss_latency::cpu5.data       152125                       # average overall mshr miss latency
system.l2.overall_avg_mshr_miss_latency::cpu6.inst        52750                       # average overall mshr miss latency
system.l2.overall_avg_mshr_miss_latency::cpu6.data 127187.500000                       # average overall mshr miss latency
system.l2.overall_avg_mshr_miss_latency::cpu7.inst        52750                       # average overall mshr miss latency
system.l2.overall_avg_mshr_miss_latency::cpu7.data       145500                       # average overall mshr miss latency
system.l2.overall_avg_mshr_miss_latency::l2.prefetcher 47967.493506                       # average overall mshr miss latency
system.l2.overall_avg_mshr_miss_latency::total 64165.133130                       # average overall mshr miss latency
system.l2.no_allocate_misses                        0                       # Number of misses that were no-allocate
system.membus.trans_dist::ReadReq                 842                       # Transaction distribution
system.membus.trans_dist::ReadResp                841                       # Transaction distribution
system.membus.trans_dist::UpgradeReq               13                       # Transaction distribution
system.membus.trans_dist::SCUpgradeReq             23                       # Transaction distribution
system.membus.trans_dist::UpgradeResp               6                       # Transaction distribution
system.membus.trans_dist::ReadExReq               104                       # Transaction distribution
system.membus.trans_dist::ReadExResp              104                       # Transaction distribution
system.membus.pkt_count_system.l2.mem_side::system.mem_ctrls.port         1933                       # Packet count per connected master and slave (bytes)
system.membus.pkt_count::total                   1933                       # Packet count per connected master and slave (bytes)
system.membus.pkt_size_system.l2.mem_side::system.mem_ctrls.port        60480                       # Cumulative packet size per connected master and slave (bytes)
system.membus.pkt_size::total                   60480                       # Cumulative packet size per connected master and slave (bytes)
system.membus.snoops                               30                       # Total snoops (count)
system.membus.snoop_fanout::samples               982                       # Request fanout histogram
system.membus.snoop_fanout::mean                    0                       # Request fanout histogram
system.membus.snoop_fanout::stdev                   0                       # Request fanout histogram
system.membus.snoop_fanout::underflows              0      0.00%      0.00% # Request fanout histogram
system.membus.snoop_fanout::0                     982    100.00%    100.00% # Request fanout histogram
system.membus.snoop_fanout::1                       0      0.00%    100.00% # Request fanout histogram
system.membus.snoop_fanout::overflows               0      0.00%    100.00% # Request fanout histogram
system.membus.snoop_fanout::min_value               0                       # Request fanout histogram
system.membus.snoop_fanout::max_value               0                       # Request fanout histogram
system.membus.snoop_fanout::total                 982                       # Request fanout histogram
system.membus.reqLayer0.occupancy             1231058                       # Layer occupancy (ticks)
system.membus.reqLayer0.utilization               2.6                       # Layer utilization (%)
system.membus.respLayer1.occupancy            5017244                       # Layer occupancy (ticks)
system.membus.respLayer1.utilization             10.8                       # Layer utilization (%)
system.tol2bus.trans_dist::ReadReq               1657                       # Transaction distribution
system.tol2bus.trans_dist::ReadResp              1655                       # Transaction distribution
system.tol2bus.trans_dist::Writeback               16                       # Transaction distribution
system.tol2bus.trans_dist::HardPFReq              285                       # Transaction distribution
system.tol2bus.trans_dist::UpgradeReq              15                       # Transaction distribution
system.tol2bus.trans_dist::SCUpgradeReq            23                       # Transaction distribution
system.tol2bus.trans_dist::UpgradeResp             38                       # Transaction distribution
system.tol2bus.trans_dist::SCUpgradeFailReq            6                       # Transaction distribution
system.tol2bus.trans_dist::UpgradeFailResp            6                       # Transaction distribution
system.tol2bus.trans_dist::ReadExReq              329                       # Transaction distribution
system.tol2bus.trans_dist::ReadExResp             329                       # Transaction distribution
system.tol2bus.pkt_count_system.cpu0.icache.mem_side::system.l2.cpu_side         1238                       # Packet count per connected master and slave (bytes)
system.tol2bus.pkt_count_system.cpu0.dcache.mem_side::system.l2.cpu_side          857                       # Packet count per connected master and slave (bytes)
system.tol2bus.pkt_count_system.cpu1.icache.mem_side::system.l2.cpu_side          108                       # Packet count per connected master and slave (bytes)
system.tol2bus.pkt_count_system.cpu1.dcache.mem_side::system.l2.cpu_side          102                       # Packet count per connected master and slave (bytes)
system.tol2bus.pkt_count_system.cpu2.icache.mem_side::system.l2.cpu_side          106                       # Packet count per connected master and slave (bytes)
system.tol2bus.pkt_count_system.cpu2.dcache.mem_side::system.l2.cpu_side          102                       # Packet count per connected master and slave (bytes)
system.tol2bus.pkt_count_system.cpu3.icache.mem_side::system.l2.cpu_side          104                       # Packet count per connected master and slave (bytes)
system.tol2bus.pkt_count_system.cpu3.dcache.mem_side::system.l2.cpu_side          103                       # Packet count per connected master and slave (bytes)
system.tol2bus.pkt_count_system.cpu4.icache.mem_side::system.l2.cpu_side          104                       # Packet count per connected master and slave (bytes)
system.tol2bus.pkt_count_system.cpu4.dcache.mem_side::system.l2.cpu_side          102                       # Packet count per connected master and slave (bytes)
system.tol2bus.pkt_count_system.cpu5.icache.mem_side::system.l2.cpu_side          110                       # Packet count per connected master and slave (bytes)
system.tol2bus.pkt_count_system.cpu5.dcache.mem_side::system.l2.cpu_side          106                       # Packet count per connected master and slave (bytes)
system.tol2bus.pkt_count_system.cpu6.icache.mem_side::system.l2.cpu_side          108                       # Packet count per connected master and slave (bytes)
system.tol2bus.pkt_count_system.cpu6.dcache.mem_side::system.l2.cpu_side           99                       # Packet count per connected master and slave (bytes)
system.tol2bus.pkt_count_system.cpu7.icache.mem_side::system.l2.cpu_side          108                       # Packet count per connected master and slave (bytes)
system.tol2bus.pkt_count_system.cpu7.dcache.mem_side::system.l2.cpu_side          100                       # Packet count per connected master and slave (bytes)
system.tol2bus.pkt_count::total                  3557                       # Packet count per connected master and slave (bytes)
system.tol2bus.pkt_size_system.cpu0.icache.mem_side::system.l2.cpu_side        39552                       # Cumulative packet size per connected master and slave (bytes)
system.tol2bus.pkt_size_system.cpu0.dcache.mem_side::system.l2.cpu_side        27200                       # Cumulative packet size per connected master and slave (bytes)
system.tol2bus.pkt_size_system.cpu1.icache.mem_side::system.l2.cpu_side         3456                       # Cumulative packet size per connected master and slave (bytes)
system.tol2bus.pkt_size_system.cpu1.dcache.mem_side::system.l2.cpu_side          896                       # Cumulative packet size per connected master and slave (bytes)
system.tol2bus.pkt_size_system.cpu2.icache.mem_side::system.l2.cpu_side         3392                       # Cumulative packet size per connected master and slave (bytes)
system.tol2bus.pkt_size_system.cpu2.dcache.mem_side::system.l2.cpu_side         1024                       # Cumulative packet size per connected master and slave (bytes)
system.tol2bus.pkt_size_system.cpu3.icache.mem_side::system.l2.cpu_side         3328                       # Cumulative packet size per connected master and slave (bytes)
system.tol2bus.pkt_size_system.cpu3.dcache.mem_side::system.l2.cpu_side          896                       # Cumulative packet size per connected master and slave (bytes)
system.tol2bus.pkt_size_system.cpu4.icache.mem_side::system.l2.cpu_side         3328                       # Cumulative packet size per connected master and slave (bytes)
system.tol2bus.pkt_size_system.cpu4.dcache.mem_side::system.l2.cpu_side          960                       # Cumulative packet size per connected master and slave (bytes)
system.tol2bus.pkt_size_system.cpu5.icache.mem_side::system.l2.cpu_side         3520                       # Cumulative packet size per connected master and slave (bytes)
system.tol2bus.pkt_size_system.cpu5.dcache.mem_side::system.l2.cpu_side          896                       # Cumulative packet size per connected master and slave (bytes)
system.tol2bus.pkt_size_system.cpu6.icache.mem_side::system.l2.cpu_side         3456                       # Cumulative packet size per connected master and slave (bytes)
system.tol2bus.pkt_size_system.cpu6.dcache.mem_side::system.l2.cpu_side          896                       # Cumulative packet size per connected master and slave (bytes)
system.tol2bus.pkt_size_system.cpu7.icache.mem_side::system.l2.cpu_side         3456                       # Cumulative packet size per connected master and slave (bytes)
system.tol2bus.pkt_size_system.cpu7.dcache.mem_side::system.l2.cpu_side          960                       # Cumulative packet size per connected master and slave (bytes)
system.tol2bus.pkt_size::total                  97216                       # Cumulative packet size per connected master and slave (bytes)
system.tol2bus.snoops                             802                       # Total snoops (count)
system.tol2bus.snoop_fanout::samples             2334                       # Request fanout histogram
system.tol2bus.snoop_fanout::mean           15.122108                       # Request fanout histogram
system.tol2bus.snoop_fanout::stdev           0.327481                       # Request fanout histogram
system.tol2bus.snoop_fanout::underflows             0      0.00%      0.00% # Request fanout histogram
system.tol2bus.snoop_fanout::0                      0      0.00%      0.00% # Request fanout histogram
system.tol2bus.snoop_fanout::1                      0      0.00%      0.00% # Request fanout histogram
system.tol2bus.snoop_fanout::2                      0      0.00%      0.00% # Request fanout histogram
system.tol2bus.snoop_fanout::3                      0      0.00%      0.00% # Request fanout histogram
system.tol2bus.snoop_fanout::4                      0      0.00%      0.00% # Request fanout histogram
system.tol2bus.snoop_fanout::5                      0      0.00%      0.00% # Request fanout histogram
system.tol2bus.snoop_fanout::6                      0      0.00%      0.00% # Request fanout histogram
system.tol2bus.snoop_fanout::7                      0      0.00%      0.00% # Request fanout histogram
system.tol2bus.snoop_fanout::8                      0      0.00%      0.00% # Request fanout histogram
system.tol2bus.snoop_fanout::9                      0      0.00%      0.00% # Request fanout histogram
system.tol2bus.snoop_fanout::10                     0      0.00%      0.00% # Request fanout histogram
system.tol2bus.snoop_fanout::11                     0      0.00%      0.00% # Request fanout histogram
system.tol2bus.snoop_fanout::12                     0      0.00%      0.00% # Request fanout histogram
system.tol2bus.snoop_fanout::13                     0      0.00%      0.00% # Request fanout histogram
system.tol2bus.snoop_fanout::14                     0      0.00%      0.00% # Request fanout histogram
system.tol2bus.snoop_fanout::15                  2049     87.79%     87.79% # Request fanout histogram
system.tol2bus.snoop_fanout::16                   285     12.21%    100.00% # Request fanout histogram
system.tol2bus.snoop_fanout::overflows              0      0.00%    100.00% # Request fanout histogram
system.tol2bus.snoop_fanout::min_value             15                       # Request fanout histogram
system.tol2bus.snoop_fanout::max_value             16                       # Request fanout histogram
system.tol2bus.snoop_fanout::total               2334                       # Request fanout histogram
system.tol2bus.reqLayer0.occupancy            1042246                       # Layer occupancy (ticks)
system.tol2bus.reqLayer0.utilization              2.2                       # Layer utilization (%)
system.tol2bus.respLayer0.occupancy           1031979                       # Layer occupancy (ticks)
system.tol2bus.respLayer0.utilization             2.2                       # Layer utilization (%)
system.tol2bus.respLayer1.occupancy            658990                       # Layer occupancy (ticks)
system.tol2bus.respLayer1.utilization             1.4                       # Layer utilization (%)
system.tol2bus.respLayer4.occupancy             90706                       # Layer occupancy (ticks)
system.tol2bus.respLayer4.utilization             0.2                       # Layer utilization (%)
system.tol2bus.respLayer5.occupancy            132721                       # Layer occupancy (ticks)
system.tol2bus.respLayer5.utilization             0.3                       # Layer utilization (%)
system.tol2bus.respLayer8.occupancy             84951                       # Layer occupancy (ticks)
system.tol2bus.respLayer8.utilization             0.2                       # Layer utilization (%)
system.tol2bus.respLayer9.occupancy            126745                       # Layer occupancy (ticks)
system.tol2bus.respLayer9.utilization             0.3                       # Layer utilization (%)
system.tol2bus.respLayer12.occupancy            84471                       # Layer occupancy (ticks)
system.tol2bus.respLayer12.utilization            0.2                       # Layer utilization (%)
system.tol2bus.respLayer13.occupancy           133480                       # Layer occupancy (ticks)
system.tol2bus.respLayer13.utilization            0.3                       # Layer utilization (%)
system.tol2bus.respLayer16.occupancy            82469                       # Layer occupancy (ticks)
system.tol2bus.respLayer16.utilization            0.2                       # Layer utilization (%)
system.tol2bus.respLayer17.occupancy           130239                       # Layer occupancy (ticks)
system.tol2bus.respLayer17.utilization            0.3                       # Layer utilization (%)
system.tol2bus.respLayer20.occupancy            86968                       # Layer occupancy (ticks)
system.tol2bus.respLayer20.utilization            0.2                       # Layer utilization (%)
system.tol2bus.respLayer21.occupancy           135740                       # Layer occupancy (ticks)
system.tol2bus.respLayer21.utilization            0.3                       # Layer utilization (%)
system.tol2bus.respLayer24.occupancy            85457                       # Layer occupancy (ticks)
system.tol2bus.respLayer24.utilization            0.2                       # Layer utilization (%)
system.tol2bus.respLayer25.occupancy           124749                       # Layer occupancy (ticks)
system.tol2bus.respLayer25.utilization            0.3                       # Layer utilization (%)
system.tol2bus.respLayer28.occupancy            83728                       # Layer occupancy (ticks)
system.tol2bus.respLayer28.utilization            0.2                       # Layer utilization (%)
system.tol2bus.respLayer29.occupancy           123490                       # Layer occupancy (ticks)
system.tol2bus.respLayer29.utilization            0.3                       # Layer utilization (%)

---------- End Simulation Statistics   ----------
