
---------- Begin Simulation Statistics ----------
sim_seconds                                  0.001621                       # Number of seconds simulated
sim_ticks                                  1621246000                       # Number of ticks simulated
final_tick                                 1621246000                       # Number of ticks from beginning of simulation (restored from checkpoints and never reset)
sim_freq                                 1000000000000                       # Frequency of simulated ticks
host_inst_rate                                 138161                       # Simulator instruction rate (inst/s)
host_op_rate                                   138525                       # Simulator op (including micro ops) rate (op/s)
host_tick_rate                                6580128                       # Simulator tick rate (ticks/s)
host_mem_usage                                 686116                       # Number of bytes of host memory used
host_seconds                                   246.39                       # Real time elapsed on the host
sim_insts                                    34040923                       # Number of instructions simulated
sim_ops                                      34130594                       # Number of ops (including micro ops) simulated
system.voltage_domain.voltage                       1                       # Voltage in Volts
system.clk_domain.clock                          1000                       # Clock period in ticks
system.mem_ctrls.bytes_read::cpu0.inst          32192                       # Number of bytes read from this memory
system.mem_ctrls.bytes_read::cpu0.data         295680                       # Number of bytes read from this memory
system.mem_ctrls.bytes_read::cpu1.inst           1920                       # Number of bytes read from this memory
system.mem_ctrls.bytes_read::cpu1.data          16768                       # Number of bytes read from this memory
system.mem_ctrls.bytes_read::cpu2.inst            128                       # Number of bytes read from this memory
system.mem_ctrls.bytes_read::cpu2.data          16896                       # Number of bytes read from this memory
system.mem_ctrls.bytes_read::cpu3.inst             64                       # Number of bytes read from this memory
system.mem_ctrls.bytes_read::cpu3.data          16768                       # Number of bytes read from this memory
system.mem_ctrls.bytes_read::cpu4.inst            128                       # Number of bytes read from this memory
system.mem_ctrls.bytes_read::cpu4.data          16960                       # Number of bytes read from this memory
system.mem_ctrls.bytes_read::cpu5.data          16768                       # Number of bytes read from this memory
system.mem_ctrls.bytes_read::cpu6.inst             64                       # Number of bytes read from this memory
system.mem_ctrls.bytes_read::cpu6.data          17024                       # Number of bytes read from this memory
system.mem_ctrls.bytes_read::cpu7.inst            128                       # Number of bytes read from this memory
system.mem_ctrls.bytes_read::cpu7.data          16960                       # Number of bytes read from this memory
system.mem_ctrls.bytes_read::total             448448                       # Number of bytes read from this memory
system.mem_ctrls.bytes_inst_read::cpu0.inst        32192                       # Number of instructions bytes read from this memory
system.mem_ctrls.bytes_inst_read::cpu1.inst         1920                       # Number of instructions bytes read from this memory
system.mem_ctrls.bytes_inst_read::cpu2.inst          128                       # Number of instructions bytes read from this memory
system.mem_ctrls.bytes_inst_read::cpu3.inst           64                       # Number of instructions bytes read from this memory
system.mem_ctrls.bytes_inst_read::cpu4.inst          128                       # Number of instructions bytes read from this memory
system.mem_ctrls.bytes_inst_read::cpu6.inst           64                       # Number of instructions bytes read from this memory
system.mem_ctrls.bytes_inst_read::cpu7.inst          128                       # Number of instructions bytes read from this memory
system.mem_ctrls.bytes_inst_read::total         34624                       # Number of instructions bytes read from this memory
system.mem_ctrls.num_reads::cpu0.inst             503                       # Number of read requests responded to by this memory
system.mem_ctrls.num_reads::cpu0.data            4620                       # Number of read requests responded to by this memory
system.mem_ctrls.num_reads::cpu1.inst              30                       # Number of read requests responded to by this memory
system.mem_ctrls.num_reads::cpu1.data             262                       # Number of read requests responded to by this memory
system.mem_ctrls.num_reads::cpu2.inst               2                       # Number of read requests responded to by this memory
system.mem_ctrls.num_reads::cpu2.data             264                       # Number of read requests responded to by this memory
system.mem_ctrls.num_reads::cpu3.inst               1                       # Number of read requests responded to by this memory
system.mem_ctrls.num_reads::cpu3.data             262                       # Number of read requests responded to by this memory
system.mem_ctrls.num_reads::cpu4.inst               2                       # Number of read requests responded to by this memory
system.mem_ctrls.num_reads::cpu4.data             265                       # Number of read requests responded to by this memory
system.mem_ctrls.num_reads::cpu5.data             262                       # Number of read requests responded to by this memory
system.mem_ctrls.num_reads::cpu6.inst               1                       # Number of read requests responded to by this memory
system.mem_ctrls.num_reads::cpu6.data             266                       # Number of read requests responded to by this memory
system.mem_ctrls.num_reads::cpu7.inst               2                       # Number of read requests responded to by this memory
system.mem_ctrls.num_reads::cpu7.data             265                       # Number of read requests responded to by this memory
system.mem_ctrls.num_reads::total                7007                       # Number of read requests responded to by this memory
system.mem_ctrls.bw_read::cpu0.inst          19856333                       # Total read bandwidth from this memory (bytes/s)
system.mem_ctrls.bw_read::cpu0.data         182378245                       # Total read bandwidth from this memory (bytes/s)
system.mem_ctrls.bw_read::cpu1.inst           1184274                       # Total read bandwidth from this memory (bytes/s)
system.mem_ctrls.bw_read::cpu1.data          10342662                       # Total read bandwidth from this memory (bytes/s)
system.mem_ctrls.bw_read::cpu2.inst             78952                       # Total read bandwidth from this memory (bytes/s)
system.mem_ctrls.bw_read::cpu2.data          10421614                       # Total read bandwidth from this memory (bytes/s)
system.mem_ctrls.bw_read::cpu3.inst             39476                       # Total read bandwidth from this memory (bytes/s)
system.mem_ctrls.bw_read::cpu3.data          10342662                       # Total read bandwidth from this memory (bytes/s)
system.mem_ctrls.bw_read::cpu4.inst             78952                       # Total read bandwidth from this memory (bytes/s)
system.mem_ctrls.bw_read::cpu4.data          10461090                       # Total read bandwidth from this memory (bytes/s)
system.mem_ctrls.bw_read::cpu5.data          10342662                       # Total read bandwidth from this memory (bytes/s)
system.mem_ctrls.bw_read::cpu6.inst             39476                       # Total read bandwidth from this memory (bytes/s)
system.mem_ctrls.bw_read::cpu6.data          10500566                       # Total read bandwidth from this memory (bytes/s)
system.mem_ctrls.bw_read::cpu7.inst             78952                       # Total read bandwidth from this memory (bytes/s)
system.mem_ctrls.bw_read::cpu7.data          10461090                       # Total read bandwidth from this memory (bytes/s)
system.mem_ctrls.bw_read::total             276607005                       # Total read bandwidth from this memory (bytes/s)
system.mem_ctrls.bw_inst_read::cpu0.inst     19856333                       # Instruction read bandwidth from this memory (bytes/s)
system.mem_ctrls.bw_inst_read::cpu1.inst      1184274                       # Instruction read bandwidth from this memory (bytes/s)
system.mem_ctrls.bw_inst_read::cpu2.inst        78952                       # Instruction read bandwidth from this memory (bytes/s)
system.mem_ctrls.bw_inst_read::cpu3.inst        39476                       # Instruction read bandwidth from this memory (bytes/s)
system.mem_ctrls.bw_inst_read::cpu4.inst        78952                       # Instruction read bandwidth from this memory (bytes/s)
system.mem_ctrls.bw_inst_read::cpu6.inst        39476                       # Instruction read bandwidth from this memory (bytes/s)
system.mem_ctrls.bw_inst_read::cpu7.inst        78952                       # Instruction read bandwidth from this memory (bytes/s)
system.mem_ctrls.bw_inst_read::total         21356414                       # Instruction read bandwidth from this memory (bytes/s)
system.mem_ctrls.bw_total::cpu0.inst         19856333                       # Total bandwidth to/from this memory (bytes/s)
system.mem_ctrls.bw_total::cpu0.data        182378245                       # Total bandwidth to/from this memory (bytes/s)
system.mem_ctrls.bw_total::cpu1.inst          1184274                       # Total bandwidth to/from this memory (bytes/s)
system.mem_ctrls.bw_total::cpu1.data         10342662                       # Total bandwidth to/from this memory (bytes/s)
system.mem_ctrls.bw_total::cpu2.inst            78952                       # Total bandwidth to/from this memory (bytes/s)
system.mem_ctrls.bw_total::cpu2.data         10421614                       # Total bandwidth to/from this memory (bytes/s)
system.mem_ctrls.bw_total::cpu3.inst            39476                       # Total bandwidth to/from this memory (bytes/s)
system.mem_ctrls.bw_total::cpu3.data         10342662                       # Total bandwidth to/from this memory (bytes/s)
system.mem_ctrls.bw_total::cpu4.inst            78952                       # Total bandwidth to/from this memory (bytes/s)
system.mem_ctrls.bw_total::cpu4.data         10461090                       # Total bandwidth to/from this memory (bytes/s)
system.mem_ctrls.bw_total::cpu5.data         10342662                       # Total bandwidth to/from this memory (bytes/s)
system.mem_ctrls.bw_total::cpu6.inst            39476                       # Total bandwidth to/from this memory (bytes/s)
system.mem_ctrls.bw_total::cpu6.data         10500566                       # Total bandwidth to/from this memory (bytes/s)
system.mem_ctrls.bw_total::cpu7.inst            78952                       # Total bandwidth to/from this memory (bytes/s)
system.mem_ctrls.bw_total::cpu7.data         10461090                       # Total bandwidth to/from this memory (bytes/s)
system.mem_ctrls.bw_total::total            276607005                       # Total bandwidth to/from this memory (bytes/s)
system.mem_ctrls.readReqs                        7007                       # Number of read requests accepted
system.mem_ctrls.writeReqs                          0                       # Number of write requests accepted
system.mem_ctrls.readBursts                      7007                       # Number of DRAM read bursts, including those serviced by the write queue
system.mem_ctrls.writeBursts                        0                       # Number of DRAM write bursts, including those merged in the write queue
system.mem_ctrls.bytesReadDRAM                 448448                       # Total number of bytes read from DRAM
system.mem_ctrls.bytesReadWrQ                       0                       # Total number of bytes read from write queue
system.mem_ctrls.bytesWritten                       0                       # Total number of bytes written to DRAM
system.mem_ctrls.bytesReadSys                  448448                       # Total read bytes from the system interface side
system.mem_ctrls.bytesWrittenSys                    0                       # Total written bytes from the system interface side
system.mem_ctrls.servicedByWrQ                      0                       # Number of DRAM read bursts serviced by the write queue
system.mem_ctrls.mergedWrBursts                     0                       # Number of DRAM write bursts merged with an existing one
system.mem_ctrls.neitherReadNorWriteReqs            6                       # Number of requests that are neither read nor write
system.mem_ctrls.perBankRdBursts::0               506                       # Per bank write bursts
system.mem_ctrls.perBankRdBursts::1               512                       # Per bank write bursts
system.mem_ctrls.perBankRdBursts::2               518                       # Per bank write bursts
system.mem_ctrls.perBankRdBursts::3               478                       # Per bank write bursts
system.mem_ctrls.perBankRdBursts::4               428                       # Per bank write bursts
system.mem_ctrls.perBankRdBursts::5               445                       # Per bank write bursts
system.mem_ctrls.perBankRdBursts::6               466                       # Per bank write bursts
system.mem_ctrls.perBankRdBursts::7               415                       # Per bank write bursts
system.mem_ctrls.perBankRdBursts::8               399                       # Per bank write bursts
system.mem_ctrls.perBankRdBursts::9               394                       # Per bank write bursts
system.mem_ctrls.perBankRdBursts::10              384                       # Per bank write bursts
system.mem_ctrls.perBankRdBursts::11              396                       # Per bank write bursts
system.mem_ctrls.perBankRdBursts::12              390                       # Per bank write bursts
system.mem_ctrls.perBankRdBursts::13              417                       # Per bank write bursts
system.mem_ctrls.perBankRdBursts::14              422                       # Per bank write bursts
system.mem_ctrls.perBankRdBursts::15              437                       # Per bank write bursts
system.mem_ctrls.perBankWrBursts::0                 0                       # Per bank write bursts
system.mem_ctrls.perBankWrBursts::1                 0                       # Per bank write bursts
system.mem_ctrls.perBankWrBursts::2                 0                       # Per bank write bursts
system.mem_ctrls.perBankWrBursts::3                 0                       # Per bank write bursts
system.mem_ctrls.perBankWrBursts::4                 0                       # Per bank write bursts
system.mem_ctrls.perBankWrBursts::5                 0                       # Per bank write bursts
system.mem_ctrls.perBankWrBursts::6                 0                       # Per bank write bursts
system.mem_ctrls.perBankWrBursts::7                 0                       # Per bank write bursts
system.mem_ctrls.perBankWrBursts::8                 0                       # Per bank write bursts
system.mem_ctrls.perBankWrBursts::9                 0                       # Per bank write bursts
system.mem_ctrls.perBankWrBursts::10                0                       # Per bank write bursts
system.mem_ctrls.perBankWrBursts::11                0                       # Per bank write bursts
system.mem_ctrls.perBankWrBursts::12                0                       # Per bank write bursts
system.mem_ctrls.perBankWrBursts::13                0                       # Per bank write bursts
system.mem_ctrls.perBankWrBursts::14                0                       # Per bank write bursts
system.mem_ctrls.perBankWrBursts::15                0                       # Per bank write bursts
system.mem_ctrls.numRdRetry                         0                       # Number of times read queue was full causing retry
system.mem_ctrls.numWrRetry                         0                       # Number of times write queue was full causing retry
system.mem_ctrls.totGap                    1621206000                       # Total gap between requests
system.mem_ctrls.readPktSize::0                     0                       # Read request sizes (log2)
system.mem_ctrls.readPktSize::1                     0                       # Read request sizes (log2)
system.mem_ctrls.readPktSize::2                     0                       # Read request sizes (log2)
system.mem_ctrls.readPktSize::3                     0                       # Read request sizes (log2)
system.mem_ctrls.readPktSize::4                     0                       # Read request sizes (log2)
system.mem_ctrls.readPktSize::5                     0                       # Read request sizes (log2)
system.mem_ctrls.readPktSize::6                  7007                       # Read request sizes (log2)
system.mem_ctrls.writePktSize::0                    0                       # Write request sizes (log2)
system.mem_ctrls.writePktSize::1                    0                       # Write request sizes (log2)
system.mem_ctrls.writePktSize::2                    0                       # Write request sizes (log2)
system.mem_ctrls.writePktSize::3                    0                       # Write request sizes (log2)
system.mem_ctrls.writePktSize::4                    0                       # Write request sizes (log2)
system.mem_ctrls.writePktSize::5                    0                       # Write request sizes (log2)
system.mem_ctrls.writePktSize::6                    0                       # Write request sizes (log2)
system.mem_ctrls.rdQLenPdf::0                    3922                       # What read queue length does an incoming req see
system.mem_ctrls.rdQLenPdf::1                    2759                       # What read queue length does an incoming req see
system.mem_ctrls.rdQLenPdf::2                     226                       # What read queue length does an incoming req see
system.mem_ctrls.rdQLenPdf::3                      57                       # What read queue length does an incoming req see
system.mem_ctrls.rdQLenPdf::4                      23                       # What read queue length does an incoming req see
system.mem_ctrls.rdQLenPdf::5                      11                       # What read queue length does an incoming req see
system.mem_ctrls.rdQLenPdf::6                       6                       # What read queue length does an incoming req see
system.mem_ctrls.rdQLenPdf::7                       3                       # What read queue length does an incoming req see
system.mem_ctrls.rdQLenPdf::8                       0                       # What read queue length does an incoming req see
system.mem_ctrls.rdQLenPdf::9                       0                       # What read queue length does an incoming req see
system.mem_ctrls.rdQLenPdf::10                      0                       # What read queue length does an incoming req see
system.mem_ctrls.rdQLenPdf::11                      0                       # What read queue length does an incoming req see
system.mem_ctrls.rdQLenPdf::12                      0                       # What read queue length does an incoming req see
system.mem_ctrls.rdQLenPdf::13                      0                       # What read queue length does an incoming req see
system.mem_ctrls.rdQLenPdf::14                      0                       # What read queue length does an incoming req see
system.mem_ctrls.rdQLenPdf::15                      0                       # What read queue length does an incoming req see
system.mem_ctrls.rdQLenPdf::16                      0                       # What read queue length does an incoming req see
system.mem_ctrls.rdQLenPdf::17                      0                       # What read queue length does an incoming req see
system.mem_ctrls.rdQLenPdf::18                      0                       # What read queue length does an incoming req see
system.mem_ctrls.rdQLenPdf::19                      0                       # What read queue length does an incoming req see
system.mem_ctrls.rdQLenPdf::20                      0                       # What read queue length does an incoming req see
system.mem_ctrls.rdQLenPdf::21                      0                       # What read queue length does an incoming req see
system.mem_ctrls.rdQLenPdf::22                      0                       # What read queue length does an incoming req see
system.mem_ctrls.rdQLenPdf::23                      0                       # What read queue length does an incoming req see
system.mem_ctrls.rdQLenPdf::24                      0                       # What read queue length does an incoming req see
system.mem_ctrls.rdQLenPdf::25                      0                       # What read queue length does an incoming req see
system.mem_ctrls.rdQLenPdf::26                      0                       # What read queue length does an incoming req see
system.mem_ctrls.rdQLenPdf::27                      0                       # What read queue length does an incoming req see
system.mem_ctrls.rdQLenPdf::28                      0                       # What read queue length does an incoming req see
system.mem_ctrls.rdQLenPdf::29                      0                       # What read queue length does an incoming req see
system.mem_ctrls.rdQLenPdf::30                      0                       # What read queue length does an incoming req see
system.mem_ctrls.rdQLenPdf::31                      0                       # What read queue length does an incoming req see
system.mem_ctrls.wrQLenPdf::0                       0                       # What write queue length does an incoming req see
system.mem_ctrls.wrQLenPdf::1                       0                       # What write queue length does an incoming req see
system.mem_ctrls.wrQLenPdf::2                       0                       # What write queue length does an incoming req see
system.mem_ctrls.wrQLenPdf::3                       0                       # What write queue length does an incoming req see
system.mem_ctrls.wrQLenPdf::4                       0                       # What write queue length does an incoming req see
system.mem_ctrls.wrQLenPdf::5                       0                       # What write queue length does an incoming req see
system.mem_ctrls.wrQLenPdf::6                       0                       # What write queue length does an incoming req see
system.mem_ctrls.wrQLenPdf::7                       0                       # What write queue length does an incoming req see
system.mem_ctrls.wrQLenPdf::8                       0                       # What write queue length does an incoming req see
system.mem_ctrls.wrQLenPdf::9                       0                       # What write queue length does an incoming req see
system.mem_ctrls.wrQLenPdf::10                      0                       # What write queue length does an incoming req see
system.mem_ctrls.wrQLenPdf::11                      0                       # What write queue length does an incoming req see
system.mem_ctrls.wrQLenPdf::12                      0                       # What write queue length does an incoming req see
system.mem_ctrls.wrQLenPdf::13                      0                       # What write queue length does an incoming req see
system.mem_ctrls.wrQLenPdf::14                      0                       # What write queue length does an incoming req see
system.mem_ctrls.wrQLenPdf::15                      0                       # What write queue length does an incoming req see
system.mem_ctrls.wrQLenPdf::16                      0                       # What write queue length does an incoming req see
system.mem_ctrls.wrQLenPdf::17                      0                       # What write queue length does an incoming req see
system.mem_ctrls.wrQLenPdf::18                      0                       # What write queue length does an incoming req see
system.mem_ctrls.wrQLenPdf::19                      0                       # What write queue length does an incoming req see
system.mem_ctrls.wrQLenPdf::20                      0                       # What write queue length does an incoming req see
system.mem_ctrls.wrQLenPdf::21                      0                       # What write queue length does an incoming req see
system.mem_ctrls.wrQLenPdf::22                      0                       # What write queue length does an incoming req see
system.mem_ctrls.wrQLenPdf::23                      0                       # What write queue length does an incoming req see
system.mem_ctrls.wrQLenPdf::24                      0                       # What write queue length does an incoming req see
system.mem_ctrls.wrQLenPdf::25                      0                       # What write queue length does an incoming req see
system.mem_ctrls.wrQLenPdf::26                      0                       # What write queue length does an incoming req see
system.mem_ctrls.wrQLenPdf::27                      0                       # What write queue length does an incoming req see
system.mem_ctrls.wrQLenPdf::28                      0                       # What write queue length does an incoming req see
system.mem_ctrls.wrQLenPdf::29                      0                       # What write queue length does an incoming req see
system.mem_ctrls.wrQLenPdf::30                      0                       # What write queue length does an incoming req see
system.mem_ctrls.wrQLenPdf::31                      0                       # What write queue length does an incoming req see
system.mem_ctrls.wrQLenPdf::32                      0                       # What write queue length does an incoming req see
system.mem_ctrls.wrQLenPdf::33                      0                       # What write queue length does an incoming req see
system.mem_ctrls.wrQLenPdf::34                      0                       # What write queue length does an incoming req see
system.mem_ctrls.wrQLenPdf::35                      0                       # What write queue length does an incoming req see
system.mem_ctrls.wrQLenPdf::36                      0                       # What write queue length does an incoming req see
system.mem_ctrls.wrQLenPdf::37                      0                       # What write queue length does an incoming req see
system.mem_ctrls.wrQLenPdf::38                      0                       # What write queue length does an incoming req see
system.mem_ctrls.wrQLenPdf::39                      0                       # What write queue length does an incoming req see
system.mem_ctrls.wrQLenPdf::40                      0                       # What write queue length does an incoming req see
system.mem_ctrls.wrQLenPdf::41                      0                       # What write queue length does an incoming req see
system.mem_ctrls.wrQLenPdf::42                      0                       # What write queue length does an incoming req see
system.mem_ctrls.wrQLenPdf::43                      0                       # What write queue length does an incoming req see
system.mem_ctrls.wrQLenPdf::44                      0                       # What write queue length does an incoming req see
system.mem_ctrls.wrQLenPdf::45                      0                       # What write queue length does an incoming req see
system.mem_ctrls.wrQLenPdf::46                      0                       # What write queue length does an incoming req see
system.mem_ctrls.wrQLenPdf::47                      0                       # What write queue length does an incoming req see
system.mem_ctrls.wrQLenPdf::48                      0                       # What write queue length does an incoming req see
system.mem_ctrls.wrQLenPdf::49                      0                       # What write queue length does an incoming req see
system.mem_ctrls.wrQLenPdf::50                      0                       # What write queue length does an incoming req see
system.mem_ctrls.wrQLenPdf::51                      0                       # What write queue length does an incoming req see
system.mem_ctrls.wrQLenPdf::52                      0                       # What write queue length does an incoming req see
system.mem_ctrls.wrQLenPdf::53                      0                       # What write queue length does an incoming req see
system.mem_ctrls.wrQLenPdf::54                      0                       # What write queue length does an incoming req see
system.mem_ctrls.wrQLenPdf::55                      0                       # What write queue length does an incoming req see
system.mem_ctrls.wrQLenPdf::56                      0                       # What write queue length does an incoming req see
system.mem_ctrls.wrQLenPdf::57                      0                       # What write queue length does an incoming req see
system.mem_ctrls.wrQLenPdf::58                      0                       # What write queue length does an incoming req see
system.mem_ctrls.wrQLenPdf::59                      0                       # What write queue length does an incoming req see
system.mem_ctrls.wrQLenPdf::60                      0                       # What write queue length does an incoming req see
system.mem_ctrls.wrQLenPdf::61                      0                       # What write queue length does an incoming req see
system.mem_ctrls.wrQLenPdf::62                      0                       # What write queue length does an incoming req see
system.mem_ctrls.wrQLenPdf::63                      0                       # What write queue length does an incoming req see
system.mem_ctrls.bytesPerActivate::samples         1942                       # Bytes accessed per row activation
system.mem_ctrls.bytesPerActivate::mean    230.426365                       # Bytes accessed per row activation
system.mem_ctrls.bytesPerActivate::gmean   127.734238                       # Bytes accessed per row activation
system.mem_ctrls.bytesPerActivate::stdev   321.772057                       # Bytes accessed per row activation
system.mem_ctrls.bytesPerActivate::0-127          930     47.89%     47.89% # Bytes accessed per row activation
system.mem_ctrls.bytesPerActivate::128-255          678     34.91%     82.80% # Bytes accessed per row activation
system.mem_ctrls.bytesPerActivate::256-383           26      1.34%     84.14% # Bytes accessed per row activation
system.mem_ctrls.bytesPerActivate::384-511           13      0.67%     84.81% # Bytes accessed per row activation
system.mem_ctrls.bytesPerActivate::512-639           14      0.72%     85.53% # Bytes accessed per row activation
system.mem_ctrls.bytesPerActivate::640-767           14      0.72%     86.25% # Bytes accessed per row activation
system.mem_ctrls.bytesPerActivate::768-895            8      0.41%     86.66% # Bytes accessed per row activation
system.mem_ctrls.bytesPerActivate::896-1023            8      0.41%     87.08% # Bytes accessed per row activation
system.mem_ctrls.bytesPerActivate::1024-1151          251     12.92%    100.00% # Bytes accessed per row activation
system.mem_ctrls.bytesPerActivate::total         1942                       # Bytes accessed per row activation
system.mem_ctrls.totQLat                     59975250                       # Total ticks spent queuing
system.mem_ctrls.totMemAccLat               191356500                       # Total ticks spent from burst creation until serviced by the DRAM
system.mem_ctrls.totBusLat                   35035000                       # Total ticks spent in databus transfers
system.mem_ctrls.avgQLat                      8559.33                       # Average queueing delay per DRAM burst
system.mem_ctrls.avgBusLat                    5000.00                       # Average bus latency per DRAM burst
system.mem_ctrls.avgMemAccLat                27309.33                       # Average memory access latency per DRAM burst
system.mem_ctrls.avgRdBW                       276.61                       # Average DRAM read bandwidth in MiByte/s
system.mem_ctrls.avgWrBW                         0.00                       # Average achieved write bandwidth in MiByte/s
system.mem_ctrls.avgRdBWSys                    276.61                       # Average system read bandwidth in MiByte/s
system.mem_ctrls.avgWrBWSys                      0.00                       # Average system write bandwidth in MiByte/s
system.mem_ctrls.peakBW                      12800.00                       # Theoretical peak bandwidth in MiByte/s
system.mem_ctrls.busUtil                         2.16                       # Data bus utilization in percentage
system.mem_ctrls.busUtilRead                     2.16                       # Data bus utilization in percentage for reads
system.mem_ctrls.busUtilWrite                    0.00                       # Data bus utilization in percentage for writes
system.mem_ctrls.avgRdQLen                       1.58                       # Average read queue length when enqueuing
system.mem_ctrls.avgWrQLen                       0.00                       # Average write queue length when enqueuing
system.mem_ctrls.readRowHits                     5060                       # Number of row buffer hits during reads
system.mem_ctrls.writeRowHits                       0                       # Number of row buffer hits during writes
system.mem_ctrls.readRowHitRate                 72.21                       # Row buffer hit rate for reads
system.mem_ctrls.writeRowHitRate                  nan                       # Row buffer hit rate for writes
system.mem_ctrls.avgGap                     231369.49                       # Average gap between requests
system.mem_ctrls.pageHitRate                    72.21                       # Row buffer hit rate, read and write combined
system.mem_ctrls_0.actEnergy                  8043840                       # Energy for activate commands per rank (pJ)
system.mem_ctrls_0.preEnergy                  4389000                       # Energy for precharge commands per rank (pJ)
system.mem_ctrls_0.readEnergy                29382600                       # Energy for read commands per rank (pJ)
system.mem_ctrls_0.writeEnergy                      0                       # Energy for write commands per rank (pJ)
system.mem_ctrls_0.refreshEnergy            105780480                       # Energy for refresh commands per rank (pJ)
system.mem_ctrls_0.actBackEnergy            800297955                       # Energy for active background per rank (pJ)
system.mem_ctrls_0.preBackEnergy            269864250                       # Energy for precharge background per rank (pJ)
system.mem_ctrls_0.totalEnergy             1217758125                       # Total energy per rank (pJ)
system.mem_ctrls_0.averagePower            751.795361                       # Core power per rank (mW)
system.mem_ctrls_0.memoryStateTime::IDLE    443401000                       # Time in different power states
system.mem_ctrls_0.memoryStateTime::REF      54080000                       # Time in different power states
system.mem_ctrls_0.memoryStateTime::PRE_PDN            0                       # Time in different power states
system.mem_ctrls_0.memoryStateTime::ACT    1122656500                       # Time in different power states
system.mem_ctrls_0.memoryStateTime::ACT_PDN            0                       # Time in different power states
system.mem_ctrls_1.actEnergy                  6630120                       # Energy for activate commands per rank (pJ)
system.mem_ctrls_1.preEnergy                  3617625                       # Energy for precharge commands per rank (pJ)
system.mem_ctrls_1.readEnergy                25030200                       # Energy for read commands per rank (pJ)
system.mem_ctrls_1.writeEnergy                      0                       # Energy for write commands per rank (pJ)
system.mem_ctrls_1.refreshEnergy            105780480                       # Energy for refresh commands per rank (pJ)
system.mem_ctrls_1.actBackEnergy            803529000                       # Energy for active background per rank (pJ)
system.mem_ctrls_1.preBackEnergy            267030000                       # Energy for precharge background per rank (pJ)
system.mem_ctrls_1.totalEnergy             1211617425                       # Total energy per rank (pJ)
system.mem_ctrls_1.averagePower            748.004337                       # Core power per rank (mW)
system.mem_ctrls_1.memoryStateTime::IDLE    438562750                       # Time in different power states
system.mem_ctrls_1.memoryStateTime::REF      54080000                       # Time in different power states
system.mem_ctrls_1.memoryStateTime::PRE_PDN            0                       # Time in different power states
system.mem_ctrls_1.memoryStateTime::ACT    1127171000                       # Time in different power states
system.mem_ctrls_1.memoryStateTime::ACT_PDN            0                       # Time in different power states
system.cpu0.branchPred.lookups                 312890                       # Number of BP lookups
system.cpu0.branchPred.condPredicted           310618                       # Number of conditional branches predicted
system.cpu0.branchPred.condIncorrect             3261                       # Number of conditional branches incorrect
system.cpu0.branchPred.BTBLookups              310662                       # Number of BTB lookups
system.cpu0.branchPred.BTBHits                 307445                       # Number of BTB hits
system.cpu0.branchPred.BTBCorrect                   0                       # Number of correct BTB predictions (this stat may not work properly.
system.cpu0.branchPred.BTBHitPct            98.964469                       # BTB Hit Percentage
system.cpu0.branchPred.usedRAS                    821                       # Number of times the RAS was used to get a target.
system.cpu0.branchPred.RASInCorrect                12                       # Number of incorrect RAS predictions.
system.cpu_voltage_domain.voltage                   1                       # Voltage in Volts
system.cpu_clk_domain.clock                       500                       # Clock period in ticks
system.cpu0.dstage2_mmu.stage2_tlb.walker.walks            0                       # Table walker walks requested
system.cpu0.dstage2_mmu.stage2_tlb.walker.walkRequestOrigin_Requested::Data            0                       # Table walker requests started/completed, data/inst
system.cpu0.dstage2_mmu.stage2_tlb.walker.walkRequestOrigin_Requested::Inst            0                       # Table walker requests started/completed, data/inst
system.cpu0.dstage2_mmu.stage2_tlb.walker.walkRequestOrigin_Requested::total            0                       # Table walker requests started/completed, data/inst
system.cpu0.dstage2_mmu.stage2_tlb.walker.walkRequestOrigin_Completed::Data            0                       # Table walker requests started/completed, data/inst
system.cpu0.dstage2_mmu.stage2_tlb.walker.walkRequestOrigin_Completed::Inst            0                       # Table walker requests started/completed, data/inst
system.cpu0.dstage2_mmu.stage2_tlb.walker.walkRequestOrigin_Completed::total            0                       # Table walker requests started/completed, data/inst
system.cpu0.dstage2_mmu.stage2_tlb.walker.walkRequestOrigin::total            0                       # Table walker requests started/completed, data/inst
system.cpu0.dstage2_mmu.stage2_tlb.inst_hits            0                       # ITB inst hits
system.cpu0.dstage2_mmu.stage2_tlb.inst_misses            0                       # ITB inst misses
system.cpu0.dstage2_mmu.stage2_tlb.read_hits            0                       # DTB read hits
system.cpu0.dstage2_mmu.stage2_tlb.read_misses            0                       # DTB read misses
system.cpu0.dstage2_mmu.stage2_tlb.write_hits            0                       # DTB write hits
system.cpu0.dstage2_mmu.stage2_tlb.write_misses            0                       # DTB write misses
system.cpu0.dstage2_mmu.stage2_tlb.flush_tlb            0                       # Number of times complete TLB was flushed
system.cpu0.dstage2_mmu.stage2_tlb.flush_tlb_mva            0                       # Number of times TLB was flushed by MVA
system.cpu0.dstage2_mmu.stage2_tlb.flush_tlb_mva_asid            0                       # Number of times TLB was flushed by MVA & ASID
system.cpu0.dstage2_mmu.stage2_tlb.flush_tlb_asid            0                       # Number of times TLB was flushed by ASID
system.cpu0.dstage2_mmu.stage2_tlb.flush_entries            0                       # Number of entries that have been flushed from TLB
system.cpu0.dstage2_mmu.stage2_tlb.align_faults            0                       # Number of TLB faults due to alignment restrictions
system.cpu0.dstage2_mmu.stage2_tlb.prefetch_faults            0                       # Number of TLB faults due to prefetch
system.cpu0.dstage2_mmu.stage2_tlb.domain_faults            0                       # Number of TLB faults due to domain restrictions
system.cpu0.dstage2_mmu.stage2_tlb.perms_faults            0                       # Number of TLB faults due to permissions restrictions
system.cpu0.dstage2_mmu.stage2_tlb.read_accesses            0                       # DTB read accesses
system.cpu0.dstage2_mmu.stage2_tlb.write_accesses            0                       # DTB write accesses
system.cpu0.dstage2_mmu.stage2_tlb.inst_accesses            0                       # ITB inst accesses
system.cpu0.dstage2_mmu.stage2_tlb.hits             0                       # DTB hits
system.cpu0.dstage2_mmu.stage2_tlb.misses            0                       # DTB misses
system.cpu0.dstage2_mmu.stage2_tlb.accesses            0                       # DTB accesses
system.cpu0.dtb.walker.walks                        0                       # Table walker walks requested
system.cpu0.dtb.walker.walkRequestOrigin_Requested::Data            0                       # Table walker requests started/completed, data/inst
system.cpu0.dtb.walker.walkRequestOrigin_Requested::Inst            0                       # Table walker requests started/completed, data/inst
system.cpu0.dtb.walker.walkRequestOrigin_Requested::total            0                       # Table walker requests started/completed, data/inst
system.cpu0.dtb.walker.walkRequestOrigin_Completed::Data            0                       # Table walker requests started/completed, data/inst
system.cpu0.dtb.walker.walkRequestOrigin_Completed::Inst            0                       # Table walker requests started/completed, data/inst
system.cpu0.dtb.walker.walkRequestOrigin_Completed::total            0                       # Table walker requests started/completed, data/inst
system.cpu0.dtb.walker.walkRequestOrigin::total            0                       # Table walker requests started/completed, data/inst
system.cpu0.dtb.inst_hits                           0                       # ITB inst hits
system.cpu0.dtb.inst_misses                         0                       # ITB inst misses
system.cpu0.dtb.read_hits                           0                       # DTB read hits
system.cpu0.dtb.read_misses                         0                       # DTB read misses
system.cpu0.dtb.write_hits                          0                       # DTB write hits
system.cpu0.dtb.write_misses                        0                       # DTB write misses
system.cpu0.dtb.flush_tlb                           0                       # Number of times complete TLB was flushed
system.cpu0.dtb.flush_tlb_mva                       0                       # Number of times TLB was flushed by MVA
system.cpu0.dtb.flush_tlb_mva_asid                  0                       # Number of times TLB was flushed by MVA & ASID
system.cpu0.dtb.flush_tlb_asid                      0                       # Number of times TLB was flushed by ASID
system.cpu0.dtb.flush_entries                       0                       # Number of entries that have been flushed from TLB
system.cpu0.dtb.align_faults                        0                       # Number of TLB faults due to alignment restrictions
system.cpu0.dtb.prefetch_faults                     0                       # Number of TLB faults due to prefetch
system.cpu0.dtb.domain_faults                       0                       # Number of TLB faults due to domain restrictions
system.cpu0.dtb.perms_faults                        0                       # Number of TLB faults due to permissions restrictions
system.cpu0.dtb.read_accesses                       0                       # DTB read accesses
system.cpu0.dtb.write_accesses                      0                       # DTB write accesses
system.cpu0.dtb.inst_accesses                       0                       # ITB inst accesses
system.cpu0.dtb.hits                                0                       # DTB hits
system.cpu0.dtb.misses                              0                       # DTB misses
system.cpu0.dtb.accesses                            0                       # DTB accesses
system.cpu0.istage2_mmu.stage2_tlb.walker.walks            0                       # Table walker walks requested
system.cpu0.istage2_mmu.stage2_tlb.walker.walkRequestOrigin_Requested::Data            0                       # Table walker requests started/completed, data/inst
system.cpu0.istage2_mmu.stage2_tlb.walker.walkRequestOrigin_Requested::Inst            0                       # Table walker requests started/completed, data/inst
system.cpu0.istage2_mmu.stage2_tlb.walker.walkRequestOrigin_Requested::total            0                       # Table walker requests started/completed, data/inst
system.cpu0.istage2_mmu.stage2_tlb.walker.walkRequestOrigin_Completed::Data            0                       # Table walker requests started/completed, data/inst
system.cpu0.istage2_mmu.stage2_tlb.walker.walkRequestOrigin_Completed::Inst            0                       # Table walker requests started/completed, data/inst
system.cpu0.istage2_mmu.stage2_tlb.walker.walkRequestOrigin_Completed::total            0                       # Table walker requests started/completed, data/inst
system.cpu0.istage2_mmu.stage2_tlb.walker.walkRequestOrigin::total            0                       # Table walker requests started/completed, data/inst
system.cpu0.istage2_mmu.stage2_tlb.inst_hits            0                       # ITB inst hits
system.cpu0.istage2_mmu.stage2_tlb.inst_misses            0                       # ITB inst misses
system.cpu0.istage2_mmu.stage2_tlb.read_hits            0                       # DTB read hits
system.cpu0.istage2_mmu.stage2_tlb.read_misses            0                       # DTB read misses
system.cpu0.istage2_mmu.stage2_tlb.write_hits            0                       # DTB write hits
system.cpu0.istage2_mmu.stage2_tlb.write_misses            0                       # DTB write misses
system.cpu0.istage2_mmu.stage2_tlb.flush_tlb            0                       # Number of times complete TLB was flushed
system.cpu0.istage2_mmu.stage2_tlb.flush_tlb_mva            0                       # Number of times TLB was flushed by MVA
system.cpu0.istage2_mmu.stage2_tlb.flush_tlb_mva_asid            0                       # Number of times TLB was flushed by MVA & ASID
system.cpu0.istage2_mmu.stage2_tlb.flush_tlb_asid            0                       # Number of times TLB was flushed by ASID
system.cpu0.istage2_mmu.stage2_tlb.flush_entries            0                       # Number of entries that have been flushed from TLB
system.cpu0.istage2_mmu.stage2_tlb.align_faults            0                       # Number of TLB faults due to alignment restrictions
system.cpu0.istage2_mmu.stage2_tlb.prefetch_faults            0                       # Number of TLB faults due to prefetch
system.cpu0.istage2_mmu.stage2_tlb.domain_faults            0                       # Number of TLB faults due to domain restrictions
system.cpu0.istage2_mmu.stage2_tlb.perms_faults            0                       # Number of TLB faults due to permissions restrictions
system.cpu0.istage2_mmu.stage2_tlb.read_accesses            0                       # DTB read accesses
system.cpu0.istage2_mmu.stage2_tlb.write_accesses            0                       # DTB write accesses
system.cpu0.istage2_mmu.stage2_tlb.inst_accesses            0                       # ITB inst accesses
system.cpu0.istage2_mmu.stage2_tlb.hits             0                       # DTB hits
system.cpu0.istage2_mmu.stage2_tlb.misses            0                       # DTB misses
system.cpu0.istage2_mmu.stage2_tlb.accesses            0                       # DTB accesses
system.cpu0.itb.walker.walks                        0                       # Table walker walks requested
system.cpu0.itb.walker.walkRequestOrigin_Requested::Data            0                       # Table walker requests started/completed, data/inst
system.cpu0.itb.walker.walkRequestOrigin_Requested::Inst            0                       # Table walker requests started/completed, data/inst
system.cpu0.itb.walker.walkRequestOrigin_Requested::total            0                       # Table walker requests started/completed, data/inst
system.cpu0.itb.walker.walkRequestOrigin_Completed::Data            0                       # Table walker requests started/completed, data/inst
system.cpu0.itb.walker.walkRequestOrigin_Completed::Inst            0                       # Table walker requests started/completed, data/inst
system.cpu0.itb.walker.walkRequestOrigin_Completed::total            0                       # Table walker requests started/completed, data/inst
system.cpu0.itb.walker.walkRequestOrigin::total            0                       # Table walker requests started/completed, data/inst
system.cpu0.itb.inst_hits                           0                       # ITB inst hits
system.cpu0.itb.inst_misses                         0                       # ITB inst misses
system.cpu0.itb.read_hits                           0                       # DTB read hits
system.cpu0.itb.read_misses                         0                       # DTB read misses
system.cpu0.itb.write_hits                          0                       # DTB write hits
system.cpu0.itb.write_misses                        0                       # DTB write misses
system.cpu0.itb.flush_tlb                           0                       # Number of times complete TLB was flushed
system.cpu0.itb.flush_tlb_mva                       0                       # Number of times TLB was flushed by MVA
system.cpu0.itb.flush_tlb_mva_asid                  0                       # Number of times TLB was flushed by MVA & ASID
system.cpu0.itb.flush_tlb_asid                      0                       # Number of times TLB was flushed by ASID
system.cpu0.itb.flush_entries                       0                       # Number of entries that have been flushed from TLB
system.cpu0.itb.align_faults                        0                       # Number of TLB faults due to alignment restrictions
system.cpu0.itb.prefetch_faults                     0                       # Number of TLB faults due to prefetch
system.cpu0.itb.domain_faults                       0                       # Number of TLB faults due to domain restrictions
system.cpu0.itb.perms_faults                        0                       # Number of TLB faults due to permissions restrictions
system.cpu0.itb.read_accesses                       0                       # DTB read accesses
system.cpu0.itb.write_accesses                      0                       # DTB write accesses
system.cpu0.itb.inst_accesses                       0                       # ITB inst accesses
system.cpu0.itb.hits                                0                       # DTB hits
system.cpu0.itb.misses                              0                       # DTB misses
system.cpu0.itb.accesses                            0                       # DTB accesses
system.cpu0.workload.num_syscalls                2402                       # Number of system calls
system.cpu0.numCycles                         3242493                       # number of cpu cycles simulated
system.cpu0.numWorkItemsStarted                     0                       # number of work items this cpu started
system.cpu0.numWorkItemsCompleted                   0                       # number of work items this cpu completed
system.cpu0.fetch.icacheStallCycles            595008                       # Number of cycles fetch is stalled on an Icache miss
system.cpu0.fetch.Insts                       4445831                       # Number of instructions fetch has processed
system.cpu0.fetch.Branches                     312890                       # Number of branches that fetch encountered
system.cpu0.fetch.predictedBranches            308266                       # Number of branches that fetch has predicted taken
system.cpu0.fetch.Cycles                      2601747                       # Number of cycles fetch has run and was not squashing or blocked
system.cpu0.fetch.SquashCycles                   6673                       # Number of cycles fetch has spent squashing
system.cpu0.fetch.MiscStallCycles                   1                       # Number of cycles fetch has spent waiting on interrupts, or bad addresses, or out of MSHRs
system.cpu0.fetch.PendingTrapStallCycles            4                       # Number of stall cycles due to pending traps
system.cpu0.fetch.CacheLines                   580603                       # Number of cache lines fetched
system.cpu0.fetch.IcacheSquashes                  944                       # Number of outstanding Icache misses that were squashed
system.cpu0.fetch.rateDist::samples           3200096                       # Number of instructions fetched each cycle (Total)
system.cpu0.fetch.rateDist::mean             1.392220                       # Number of instructions fetched each cycle (Total)
system.cpu0.fetch.rateDist::stdev            2.620106                       # Number of instructions fetched each cycle (Total)
system.cpu0.fetch.rateDist::underflows              0      0.00%      0.00% # Number of instructions fetched each cycle (Total)
system.cpu0.fetch.rateDist::0                 2354321     73.57%     73.57% # Number of instructions fetched each cycle (Total)
system.cpu0.fetch.rateDist::1                   70433      2.20%     75.77% # Number of instructions fetched each cycle (Total)
system.cpu0.fetch.rateDist::2                   87570      2.74%     78.51% # Number of instructions fetched each cycle (Total)
system.cpu0.fetch.rateDist::3                   72288      2.26%     80.77% # Number of instructions fetched each cycle (Total)
system.cpu0.fetch.rateDist::4                   90802      2.84%     83.60% # Number of instructions fetched each cycle (Total)
system.cpu0.fetch.rateDist::5                   69757      2.18%     85.78% # Number of instructions fetched each cycle (Total)
system.cpu0.fetch.rateDist::6                   83401      2.61%     88.39% # Number of instructions fetched each cycle (Total)
system.cpu0.fetch.rateDist::7                  191790      5.99%     94.38% # Number of instructions fetched each cycle (Total)
system.cpu0.fetch.rateDist::8                  179734      5.62%    100.00% # Number of instructions fetched each cycle (Total)
system.cpu0.fetch.rateDist::overflows               0      0.00%    100.00% # Number of instructions fetched each cycle (Total)
system.cpu0.fetch.rateDist::min_value               0                       # Number of instructions fetched each cycle (Total)
system.cpu0.fetch.rateDist::max_value               8                       # Number of instructions fetched each cycle (Total)
system.cpu0.fetch.rateDist::total             3200096                       # Number of instructions fetched each cycle (Total)
system.cpu0.fetch.branchRate                 0.096497                       # Number of branch fetches per cycle
system.cpu0.fetch.rate                       1.371115                       # Number of inst fetches per cycle
system.cpu0.decode.IdleCycles                  205932                       # Number of cycles decode is idle
system.cpu0.decode.BlockedCycles              2428932                       # Number of cycles decode is blocked
system.cpu0.decode.RunCycles                   120828                       # Number of cycles decode is running
system.cpu0.decode.UnblockCycles               441377                       # Number of cycles decode is unblocking
system.cpu0.decode.SquashCycles                  3027                       # Number of cycles decode is squashing
system.cpu0.decode.BranchResolved                 954                       # Number of times decode resolved a branch
system.cpu0.decode.BranchMispred                  324                       # Number of times decode detected a branch misprediction
system.cpu0.decode.DecodedInsts               4366826                       # Number of instructions handled by decode
system.cpu0.decode.SquashedInsts                 1137                       # Number of squashed instructions handled by decode
system.cpu0.rename.SquashCycles                  3027                       # Number of cycles rename is squashing
system.cpu0.rename.IdleCycles                  338177                       # Number of cycles rename is idle
system.cpu0.rename.BlockCycles                 784512                       # Number of cycles rename is blocking
system.cpu0.rename.serializeStallCycles         12055                       # count of cycles rename stalled for serializing inst
system.cpu0.rename.RunCycles                   411616                       # Number of cycles rename is running
system.cpu0.rename.UnblockCycles              1650709                       # Number of cycles rename is unblocking
system.cpu0.rename.RenamedInsts               4352203                       # Number of instructions processed by rename
system.cpu0.rename.ROBFullEvents                    3                       # Number of times rename has blocked due to ROB full
system.cpu0.rename.IQFullEvents               1138530                       # Number of times rename has blocked due to IQ full
system.cpu0.rename.LQFullEvents                322564                       # Number of times rename has blocked due to LQ full
system.cpu0.rename.SQFullEvents                255451                       # Number of times rename has blocked due to SQ full
system.cpu0.rename.RenamedOperands            5635431                       # Number of destination operands rename has renamed
system.cpu0.rename.RenameLookups             21415018                       # Number of register rename lookups that rename has made
system.cpu0.rename.int_rename_lookups         7203722                       # Number of integer rename lookups
system.cpu0.rename.fp_rename_lookups               22                       # Number of floating rename lookups
system.cpu0.rename.CommittedMaps              5586079                       # Number of HB maps that are committed
system.cpu0.rename.UndoneMaps                   49352                       # Number of HB maps that are undone due to squashing
system.cpu0.rename.serializingInsts               150                       # count of serializing insts renamed
system.cpu0.rename.tempSerializingInsts           152                       # count of temporary serializing insts renamed
system.cpu0.rename.skidInsts                  2400691                       # count of insts added to the skid buffer
system.cpu0.memDep0.insertedLoads             1069273                       # Number of loads inserted to the mem dependence unit.
system.cpu0.memDep0.insertedStores              77309                       # Number of stores inserted to the mem dependence unit.
system.cpu0.memDep0.conflictingLoads             4655                       # Number of conflicting loads.
system.cpu0.memDep0.conflictingStores             557                       # Number of conflicting stores.
system.cpu0.iq.iqInstsAdded                   4338673                       # Number of instructions added to the IQ (excludes non-spec)
system.cpu0.iq.iqNonSpecInstsAdded                290                       # Number of non-speculative instructions added to the IQ
system.cpu0.iq.iqInstsIssued                  7331210                       # Number of instructions issued
system.cpu0.iq.iqSquashedInstsIssued             5385                       # Number of squashed instructions issued
system.cpu0.iq.iqSquashedInstsExamined          29061                       # Number of squashed instructions iterated over during squash; mainly for profiling
system.cpu0.iq.iqSquashedOperandsExamined        89598                       # Number of squashed operands that are examined and possibly removed from graph
system.cpu0.iq.iqSquashedNonSpecRemoved            88                       # Number of squashed non-spec instructions that were removed
system.cpu0.iq.issued_per_cycle::samples      3200096                       # Number of insts issued each cycle
system.cpu0.iq.issued_per_cycle::mean        2.290934                       # Number of insts issued each cycle
system.cpu0.iq.issued_per_cycle::stdev       1.698208                       # Number of insts issued each cycle
system.cpu0.iq.issued_per_cycle::underflows            0      0.00%      0.00% # Number of insts issued each cycle
system.cpu0.iq.issued_per_cycle::0             820682     25.65%     25.65% # Number of insts issued each cycle
system.cpu0.iq.issued_per_cycle::1             440900     13.78%     39.42% # Number of insts issued each cycle
system.cpu0.iq.issued_per_cycle::2             306604      9.58%     49.00% # Number of insts issued each cycle
system.cpu0.iq.issued_per_cycle::3             250538      7.83%     56.83% # Number of insts issued each cycle
system.cpu0.iq.issued_per_cycle::4            1381372     43.17%    100.00% # Number of insts issued each cycle
system.cpu0.iq.issued_per_cycle::overflows            0      0.00%    100.00% # Number of insts issued each cycle
system.cpu0.iq.issued_per_cycle::min_value            0                       # Number of insts issued each cycle
system.cpu0.iq.issued_per_cycle::max_value            4                       # Number of insts issued each cycle
system.cpu0.iq.issued_per_cycle::total        3200096                       # Number of insts issued each cycle
system.cpu0.iq.fu_full::No_OpClass                  0      0.00%      0.00% # attempts to use FU when none available
system.cpu0.iq.fu_full::IntAlu                      0      0.00%      0.00% # attempts to use FU when none available
system.cpu0.iq.fu_full::IntMult                  2778    100.00%    100.00% # attempts to use FU when none available
system.cpu0.iq.fu_full::IntDiv                      0      0.00%    100.00% # attempts to use FU when none available
system.cpu0.iq.fu_full::FloatAdd                    0      0.00%    100.00% # attempts to use FU when none available
system.cpu0.iq.fu_full::FloatCmp                    0      0.00%    100.00% # attempts to use FU when none available
system.cpu0.iq.fu_full::FloatCvt                    0      0.00%    100.00% # attempts to use FU when none available
system.cpu0.iq.fu_full::FloatMult                   0      0.00%    100.00% # attempts to use FU when none available
system.cpu0.iq.fu_full::FloatDiv                    0      0.00%    100.00% # attempts to use FU when none available
system.cpu0.iq.fu_full::FloatSqrt                   0      0.00%    100.00% # attempts to use FU when none available
system.cpu0.iq.fu_full::SimdAdd                     0      0.00%    100.00% # attempts to use FU when none available
system.cpu0.iq.fu_full::SimdAddAcc                  0      0.00%    100.00% # attempts to use FU when none available
system.cpu0.iq.fu_full::SimdAlu                     0      0.00%    100.00% # attempts to use FU when none available
system.cpu0.iq.fu_full::SimdCmp                     0      0.00%    100.00% # attempts to use FU when none available
system.cpu0.iq.fu_full::SimdCvt                     0      0.00%    100.00% # attempts to use FU when none available
system.cpu0.iq.fu_full::SimdMisc                    0      0.00%    100.00% # attempts to use FU when none available
system.cpu0.iq.fu_full::SimdMult                    0      0.00%    100.00% # attempts to use FU when none available
system.cpu0.iq.fu_full::SimdMultAcc                 0      0.00%    100.00% # attempts to use FU when none available
system.cpu0.iq.fu_full::SimdShift                   0      0.00%    100.00% # attempts to use FU when none available
system.cpu0.iq.fu_full::SimdShiftAcc                0      0.00%    100.00% # attempts to use FU when none available
system.cpu0.iq.fu_full::SimdSqrt                    0      0.00%    100.00% # attempts to use FU when none available
system.cpu0.iq.fu_full::SimdFloatAdd                0      0.00%    100.00% # attempts to use FU when none available
system.cpu0.iq.fu_full::SimdFloatAlu                0      0.00%    100.00% # attempts to use FU when none available
system.cpu0.iq.fu_full::SimdFloatCmp                0      0.00%    100.00% # attempts to use FU when none available
system.cpu0.iq.fu_full::SimdFloatCvt                0      0.00%    100.00% # attempts to use FU when none available
system.cpu0.iq.fu_full::SimdFloatDiv                0      0.00%    100.00% # attempts to use FU when none available
system.cpu0.iq.fu_full::SimdFloatMisc               0      0.00%    100.00% # attempts to use FU when none available
system.cpu0.iq.fu_full::SimdFloatMult               0      0.00%    100.00% # attempts to use FU when none available
system.cpu0.iq.fu_full::SimdFloatMultAcc            0      0.00%    100.00% # attempts to use FU when none available
system.cpu0.iq.fu_full::SimdFloatSqrt               0      0.00%    100.00% # attempts to use FU when none available
system.cpu0.iq.fu_full::MemRead                     0      0.00%    100.00% # attempts to use FU when none available
system.cpu0.iq.fu_full::MemWrite                    0      0.00%    100.00% # attempts to use FU when none available
system.cpu0.iq.fu_full::IprAccess                   0      0.00%    100.00% # attempts to use FU when none available
system.cpu0.iq.fu_full::InstPrefetch                0      0.00%    100.00% # attempts to use FU when none available
system.cpu0.iq.FU_type_0::No_OpClass                0      0.00%      0.00% # Type of FU issued
system.cpu0.iq.FU_type_0::IntAlu              2363696     32.24%     32.24% # Type of FU issued
system.cpu0.iq.FU_type_0::IntMult              819621     11.18%     43.42% # Type of FU issued
system.cpu0.iq.FU_type_0::IntDiv                    0      0.00%     43.42% # Type of FU issued
system.cpu0.iq.FU_type_0::FloatAdd                  0      0.00%     43.42% # Type of FU issued
system.cpu0.iq.FU_type_0::FloatCmp                  0      0.00%     43.42% # Type of FU issued
system.cpu0.iq.FU_type_0::FloatCvt                  0      0.00%     43.42% # Type of FU issued
system.cpu0.iq.FU_type_0::FloatMult                 0      0.00%     43.42% # Type of FU issued
system.cpu0.iq.FU_type_0::FloatDiv                  0      0.00%     43.42% # Type of FU issued
system.cpu0.iq.FU_type_0::FloatSqrt                 0      0.00%     43.42% # Type of FU issued
system.cpu0.iq.FU_type_0::SimdAdd                   0      0.00%     43.42% # Type of FU issued
system.cpu0.iq.FU_type_0::SimdAddAcc                0      0.00%     43.42% # Type of FU issued
system.cpu0.iq.FU_type_0::SimdAlu                   0      0.00%     43.42% # Type of FU issued
system.cpu0.iq.FU_type_0::SimdCmp                   0      0.00%     43.42% # Type of FU issued
system.cpu0.iq.FU_type_0::SimdCvt                   0      0.00%     43.42% # Type of FU issued
system.cpu0.iq.FU_type_0::SimdMisc                  0      0.00%     43.42% # Type of FU issued
system.cpu0.iq.FU_type_0::SimdMult                  0      0.00%     43.42% # Type of FU issued
system.cpu0.iq.FU_type_0::SimdMultAcc               0      0.00%     43.42% # Type of FU issued
system.cpu0.iq.FU_type_0::SimdShift                 0      0.00%     43.42% # Type of FU issued
system.cpu0.iq.FU_type_0::SimdShiftAcc              0      0.00%     43.42% # Type of FU issued
system.cpu0.iq.FU_type_0::SimdSqrt                  0      0.00%     43.42% # Type of FU issued
system.cpu0.iq.FU_type_0::SimdFloatAdd              0      0.00%     43.42% # Type of FU issued
system.cpu0.iq.FU_type_0::SimdFloatAlu              0      0.00%     43.42% # Type of FU issued
system.cpu0.iq.FU_type_0::SimdFloatCmp              0      0.00%     43.42% # Type of FU issued
system.cpu0.iq.FU_type_0::SimdFloatCvt              0      0.00%     43.42% # Type of FU issued
system.cpu0.iq.FU_type_0::SimdFloatDiv              0      0.00%     43.42% # Type of FU issued
system.cpu0.iq.FU_type_0::SimdFloatMisc             3      0.00%     43.42% # Type of FU issued
system.cpu0.iq.FU_type_0::SimdFloatMult             0      0.00%     43.42% # Type of FU issued
system.cpu0.iq.FU_type_0::SimdFloatMultAcc            0      0.00%     43.42% # Type of FU issued
system.cpu0.iq.FU_type_0::SimdFloatSqrt             0      0.00%     43.42% # Type of FU issued
system.cpu0.iq.FU_type_0::MemRead             4071570     55.54%     98.96% # Type of FU issued
system.cpu0.iq.FU_type_0::MemWrite              76320      1.04%    100.00% # Type of FU issued
system.cpu0.iq.FU_type_0::IprAccess                 0      0.00%    100.00% # Type of FU issued
system.cpu0.iq.FU_type_0::InstPrefetch              0      0.00%    100.00% # Type of FU issued
system.cpu0.iq.FU_type_0::total               7331210                       # Type of FU issued
system.cpu0.iq.rate                          2.260979                       # Inst issue rate
system.cpu0.iq.fu_busy_cnt                       2778                       # FU busy when requested
system.cpu0.iq.fu_busy_rate                  0.000379                       # FU busy rate (busy events/executed inst)
system.cpu0.iq.int_inst_queue_reads          17870623                       # Number of integer instruction queue reads
system.cpu0.iq.int_inst_queue_writes          4368064                       # Number of integer instruction queue writes
system.cpu0.iq.int_inst_queue_wakeup_accesses      4318434                       # Number of integer instruction queue wakeup accesses
system.cpu0.iq.fp_inst_queue_reads                 56                       # Number of floating instruction queue reads
system.cpu0.iq.fp_inst_queue_writes                28                       # Number of floating instruction queue writes
system.cpu0.iq.fp_inst_queue_wakeup_accesses           28                       # Number of floating instruction queue wakeup accesses
system.cpu0.iq.int_alu_accesses               7333960                       # Number of integer alu accesses
system.cpu0.iq.fp_alu_accesses                     28                       # Number of floating point alu accesses
system.cpu0.iew.lsq.thread0.forwLoads             125                       # Number of loads that had data forwarded from stores
system.cpu0.iew.lsq.thread0.invAddrLoads            0                       # Number of loads ignored due to an invalid address
system.cpu0.iew.lsq.thread0.squashedLoads         9053                       # Number of loads squashed
system.cpu0.iew.lsq.thread0.ignoredResponses            3                       # Number of memory responses ignored because the instruction is squashed
system.cpu0.iew.lsq.thread0.memOrderViolation           71                       # Number of memory ordering violations
system.cpu0.iew.lsq.thread0.squashedStores         1576                       # Number of stores squashed
system.cpu0.iew.lsq.thread0.invAddrSwpfs            0                       # Number of software prefetches ignored due to an invalid address
system.cpu0.iew.lsq.thread0.blockedLoads            0                       # Number of blocked loads due to partial load-store forwarding
system.cpu0.iew.lsq.thread0.rescheduledLoads          121                       # Number of loads that were rescheduled
system.cpu0.iew.lsq.thread0.cacheBlocked      3011495                       # Number of times an access to memory failed due to the cache being blocked
system.cpu0.iew.iewIdleCycles                       0                       # Number of cycles IEW is idle
system.cpu0.iew.iewSquashCycles                  3027                       # Number of cycles IEW is squashing
system.cpu0.iew.iewBlockCycles                 318813                       # Number of cycles IEW is blocking
system.cpu0.iew.iewUnblockCycles                50932                       # Number of cycles IEW is unblocking
system.cpu0.iew.iewDispatchedInsts            4338970                       # Number of instructions dispatched to IQ
system.cpu0.iew.iewDispSquashedInsts             3407                       # Number of squashed instructions skipped by dispatch
system.cpu0.iew.iewDispLoadInsts              1069273                       # Number of dispatched load instructions
system.cpu0.iew.iewDispStoreInsts               77309                       # Number of dispatched store instructions
system.cpu0.iew.iewDispNonSpecInsts               139                       # Number of dispatched non-speculative instructions
system.cpu0.iew.iewIQFullEvents                 17490                       # Number of times the IQ has become full, causing a stall
system.cpu0.iew.iewLSQFullEvents                13847                       # Number of times the LSQ has become full, causing a stall
system.cpu0.iew.memOrderViolationEvents            71                       # Number of memory order violations
system.cpu0.iew.predictedTakenIncorrect          2444                       # Number of branches that were predicted taken incorrectly
system.cpu0.iew.predictedNotTakenIncorrect          573                       # Number of branches that were predicted not taken incorrectly
system.cpu0.iew.branchMispredicts                3017                       # Number of branch mispredicts detected at execute
system.cpu0.iew.iewExecutedInsts              7327360                       # Number of executed instructions
system.cpu0.iew.iewExecLoadInsts              4069967                       # Number of load instructions executed
system.cpu0.iew.iewExecSquashedInsts             3850                       # Number of squashed instructions skipped in execute
system.cpu0.iew.exec_swp                            0                       # number of swp insts executed
system.cpu0.iew.exec_nop                            7                       # number of nop insts executed
system.cpu0.iew.exec_refs                     4146150                       # number of memory reference insts executed
system.cpu0.iew.exec_branches                  301695                       # Number of branches executed
system.cpu0.iew.exec_stores                     76183                       # Number of stores executed
system.cpu0.iew.exec_rate                    2.259792                       # Inst execution rate
system.cpu0.iew.wb_sent                       4318710                       # cumulative count of insts sent to commit
system.cpu0.iew.wb_count                      4318462                       # cumulative count of insts written-back
system.cpu0.iew.wb_producers                  3317991                       # num instructions producing a value
system.cpu0.iew.wb_consumers                  4689450                       # num instructions consuming a value
system.cpu0.iew.wb_penalized                        0                       # number of instrctions required to write to 'other' IQ
system.cpu0.iew.wb_rate                      1.331834                       # insts written-back per cycle
system.cpu0.iew.wb_fanout                    0.707544                       # average fanout of values written-back
system.cpu0.iew.wb_penalized_rate                   0                       # fraction of instructions written-back that wrote to 'other' IQ
system.cpu0.commit.commitSquashedInsts          29103                       # The number of squashed insts skipped by commit
system.cpu0.commit.commitNonSpecStalls            202                       # The number of times commit has been forced to stall to communicate backwards
system.cpu0.commit.branchMispredicts             2952                       # The number of times a branch was mispredicted
system.cpu0.commit.committed_per_cycle::samples      3194924                       # Number of insts commited each cycle
system.cpu0.commit.committed_per_cycle::mean     1.348984                       # Number of insts commited each cycle
system.cpu0.commit.committed_per_cycle::stdev     2.260362                       # Number of insts commited each cycle
system.cpu0.commit.committed_per_cycle::underflows            0      0.00%      0.00% # Number of insts commited each cycle
system.cpu0.commit.committed_per_cycle::0      1792033     56.09%     56.09% # Number of insts commited each cycle
system.cpu0.commit.committed_per_cycle::1       534243     16.72%     72.81% # Number of insts commited each cycle
system.cpu0.commit.committed_per_cycle::2       296183      9.27%     82.08% # Number of insts commited each cycle
system.cpu0.commit.committed_per_cycle::3       198842      6.22%     88.31% # Number of insts commited each cycle
system.cpu0.commit.committed_per_cycle::4        22865      0.72%     89.02% # Number of insts commited each cycle
system.cpu0.commit.committed_per_cycle::5        71953      2.25%     91.27% # Number of insts commited each cycle
system.cpu0.commit.committed_per_cycle::6        22169      0.69%     91.97% # Number of insts commited each cycle
system.cpu0.commit.committed_per_cycle::7        50560      1.58%     93.55% # Number of insts commited each cycle
system.cpu0.commit.committed_per_cycle::8       206076      6.45%    100.00% # Number of insts commited each cycle
system.cpu0.commit.committed_per_cycle::overflows            0      0.00%    100.00% # Number of insts commited each cycle
system.cpu0.commit.committed_per_cycle::min_value            0                       # Number of insts commited each cycle
system.cpu0.commit.committed_per_cycle::max_value            8                       # Number of insts commited each cycle
system.cpu0.commit.committed_per_cycle::total      3194924                       # Number of insts commited each cycle
system.cpu0.commit.committedInsts             4303858                       # Number of instructions committed
system.cpu0.commit.committedOps               4309902                       # Number of ops (including micro ops) committed
system.cpu0.commit.swp_count                        0                       # Number of s/w prefetches committed
system.cpu0.commit.refs                       1135953                       # Number of memory references committed
[...]
system.l2.ReadExReq_avg_mshr_miss_latency::cpu7.data 72955.938697                       # average ReadExReq mshr miss latency
system.l2.ReadExReq_avg_mshr_miss_latency::total 64428.255531                       # average ReadExReq mshr miss latency
system.l2.demand_avg_mshr_miss_latency::cpu0.inst 66624.007937                       # average overall mshr miss latency
system.l2.demand_avg_mshr_miss_latency::cpu0.data 61304.912573                       # average overall mshr miss latency
system.l2.demand_avg_mshr_miss_latency::cpu1.inst 99266.666667                       # average overall mshr miss latency
system.l2.demand_avg_mshr_miss_latency::cpu1.data 72437.977099                       # average overall mshr miss latency
system.l2.demand_avg_mshr_miss_latency::cpu2.inst        58625                       # average overall mshr miss latency
system.l2.demand_avg_mshr_miss_latency::cpu2.data 72535.037879                       # average overall mshr miss latency
system.l2.demand_avg_mshr_miss_latency::cpu3.inst        56250                       # average overall mshr miss latency
system.l2.demand_avg_mshr_miss_latency::cpu3.data 72494.274809                       # average overall mshr miss latency
system.l2.demand_avg_mshr_miss_latency::cpu4.inst        56625                       # average overall mshr miss latency
system.l2.demand_avg_mshr_miss_latency::cpu4.data 74038.679245                       # average overall mshr miss latency
system.l2.demand_avg_mshr_miss_latency::cpu5.data 73060.114504                       # average overall mshr miss latency
system.l2.demand_avg_mshr_miss_latency::cpu6.inst        83750                       # average overall mshr miss latency
system.l2.demand_avg_mshr_miss_latency::cpu6.data 73741.541353                       # average overall mshr miss latency
system.l2.demand_avg_mshr_miss_latency::cpu7.inst        89500                       # average overall mshr miss latency
system.l2.demand_avg_mshr_miss_latency::cpu7.data 72913.207547                       # average overall mshr miss latency
system.l2.demand_avg_mshr_miss_latency::total 64947.460551                       # average overall mshr miss latency
system.l2.overall_avg_mshr_miss_latency::cpu0.inst 66624.007937                       # average overall mshr miss latency
system.l2.overall_avg_mshr_miss_latency::cpu0.data 61304.912573                       # average overall mshr miss latency
system.l2.overall_avg_mshr_miss_latency::cpu1.inst 99266.666667                       # average overall mshr miss latency
system.l2.overall_avg_mshr_miss_latency::cpu1.data 72437.977099                       # average overall mshr miss latency
system.l2.overall_avg_mshr_miss_latency::cpu2.inst        58625                       # average overall mshr miss latency
system.l2.overall_avg_mshr_miss_latency::cpu2.data 72535.037879                       # average overall mshr miss latency
system.l2.overall_avg_mshr_miss_latency::cpu3.inst        56250                       # average overall mshr miss latency
system.l2.overall_avg_mshr_miss_latency::cpu3.data 72494.274809                       # average overall mshr miss latency
system.l2.overall_avg_mshr_miss_latency::cpu4.inst        56625                       # average overall mshr miss latency
system.l2.overall_avg_mshr_miss_latency::cpu4.data 74038.679245                       # average overall mshr miss latency
system.l2.overall_avg_mshr_miss_latency::cpu5.data 73060.114504                       # average overall mshr miss latency
system.l2.overall_avg_mshr_miss_latency::cpu6.inst        83750                       # average overall mshr miss latency
system.l2.overall_avg_mshr_miss_latency::cpu6.data 73741.541353                       # average overall mshr miss latency
system.l2.overall_avg_mshr_miss_latency::cpu7.inst        89500                       # average overall mshr miss latency
system.l2.overall_avg_mshr_miss_latency::cpu7.data 72913.207547                       # average overall mshr miss latency
system.l2.overall_avg_mshr_miss_latency::total 64947.460551                       # average overall mshr miss latency
system.l2.no_allocate_misses                        0                       # Number of misses that were no-allocate
system.membus.trans_dist::ReadReq                 680                       # Transaction distribution
system.membus.trans_dist::ReadResp                679                       # Transaction distribution
system.membus.trans_dist::UpgradeReq               13                       # Transaction distribution
system.membus.trans_dist::SCUpgradeReq             20                       # Transaction distribution
system.membus.trans_dist::UpgradeResp               6                       # Transaction distribution
system.membus.trans_dist::ReadExReq              6327                       # Transaction distribution
system.membus.trans_dist::ReadExResp             6327                       # Transaction distribution
system.membus.pkt_count_system.l2.mem_side::system.mem_ctrls.port        14052                       # Packet count per connected master and slave (bytes)
system.membus.pkt_count::total                  14052                       # Packet count per connected master and slave (bytes)
system.membus.pkt_size_system.l2.mem_side::system.mem_ctrls.port       448384                       # Cumulative packet size per connected master and slave (bytes)
system.membus.pkt_size::total                  448384                       # Cumulative packet size per connected master and slave (bytes)
system.membus.snoops                               27                       # Total snoops (count)
system.membus.snoop_fanout::samples              7040                       # Request fanout histogram
system.membus.snoop_fanout::mean                    0                       # Request fanout histogram
system.membus.snoop_fanout::stdev                   0                       # Request fanout histogram
system.membus.snoop_fanout::underflows              0      0.00%      0.00% # Request fanout histogram
system.membus.snoop_fanout::0                    7040    100.00%    100.00% # Request fanout histogram
system.membus.snoop_fanout::1                       0      0.00%    100.00% # Request fanout histogram
system.membus.snoop_fanout::overflows               0      0.00%    100.00% # Request fanout histogram
system.membus.snoop_fanout::min_value               0                       # Request fanout histogram
system.membus.snoop_fanout::max_value               0                       # Request fanout histogram
system.membus.snoop_fanout::total                7040                       # Request fanout histogram
system.membus.reqLayer0.occupancy             7905001                       # Layer occupancy (ticks)
system.membus.reqLayer0.utilization               0.5                       # Layer utilization (%)
system.membus.respLayer1.occupancy           37193744                       # Layer occupancy (ticks)
system.membus.respLayer1.utilization              2.3                       # Layer utilization (%)
system.tol2bus.trans_dist::ReadReq            2121163                       # Transaction distribution
system.tol2bus.trans_dist::ReadResp           2121161                       # Transaction distribution
system.tol2bus.trans_dist::Writeback           219129                       # Transaction distribution
system.tol2bus.trans_dist::UpgradeReq              13                       # Transaction distribution
system.tol2bus.trans_dist::SCUpgradeReq            22                       # Transaction distribution
system.tol2bus.trans_dist::UpgradeResp             35                       # Transaction distribution
system.tol2bus.trans_dist::SCUpgradeFailReq            3                       # Transaction distribution
system.tol2bus.trans_dist::UpgradeFailResp            3                       # Transaction distribution
system.tol2bus.trans_dist::ReadExReq            20699                       # Transaction distribution
system.tol2bus.trans_dist::ReadExResp           20699                       # Transaction distribution
system.tol2bus.pkt_count_system.cpu0.icache.mem_side::system.l2.cpu_side         1232                       # Packet count per connected master and slave (bytes)
system.tol2bus.pkt_count_system.cpu0.dcache.mem_side::system.l2.cpu_side       484611                       # Packet count per connected master and slave (bytes)
system.tol2bus.pkt_count_system.cpu1.icache.mem_side::system.l2.cpu_side          108                       # Packet count per connected master and slave (bytes)
system.tol2bus.pkt_count_system.cpu1.dcache.mem_side::system.l2.cpu_side       428620                       # Packet count per connected master and slave (bytes)
system.tol2bus.pkt_count_system.cpu2.icache.mem_side::system.l2.cpu_side          110                       # Packet count per connected master and slave (bytes)
system.tol2bus.pkt_count_system.cpu2.dcache.mem_side::system.l2.cpu_side       428736                       # Packet count per connected master and slave (bytes)
system.tol2bus.pkt_count_system.cpu3.icache.mem_side::system.l2.cpu_side          106                       # Packet count per connected master and slave (bytes)
system.tol2bus.pkt_count_system.cpu3.dcache.mem_side::system.l2.cpu_side       466745                       # Packet count per connected master and slave (bytes)
system.tol2bus.pkt_count_system.cpu4.icache.mem_side::system.l2.cpu_side          108                       # Packet count per connected master and slave (bytes)
system.tol2bus.pkt_count_system.cpu4.dcache.mem_side::system.l2.cpu_side       428380                       # Packet count per connected master and slave (bytes)
system.tol2bus.pkt_count_system.cpu5.icache.mem_side::system.l2.cpu_side          110                       # Packet count per connected master and slave (bytes)
system.tol2bus.pkt_count_system.cpu5.dcache.mem_side::system.l2.cpu_side       428889                       # Packet count per connected master and slave (bytes)
system.tol2bus.pkt_count_system.cpu6.icache.mem_side::system.l2.cpu_side          110                       # Packet count per connected master and slave (bytes)
system.tol2bus.pkt_count_system.cpu6.dcache.mem_side::system.l2.cpu_side       428677                       # Packet count per connected master and slave (bytes)
system.tol2bus.pkt_count_system.cpu7.icache.mem_side::system.l2.cpu_side          106                       # Packet count per connected master and slave (bytes)
system.tol2bus.pkt_count_system.cpu7.dcache.mem_side::system.l2.cpu_side       428614                       # Packet count per connected master and slave (bytes)
system.tol2bus.pkt_count::total               3525262                       # Packet count per connected master and slave (bytes)
system.tol2bus.pkt_size_system.cpu0.icache.mem_side::system.l2.cpu_side        39360                       # Cumulative packet size per connected master and slave (bytes)
system.tol2bus.pkt_size_system.cpu0.dcache.mem_side::system.l2.cpu_side     13628480                       # Cumulative packet size per connected master and slave (bytes)
system.tol2bus.pkt_size_system.cpu1.icache.mem_side::system.l2.cpu_side         3456                       # Cumulative packet size per connected master and slave (bytes)
system.tol2bus.pkt_size_system.cpu1.dcache.mem_side::system.l2.cpu_side     10340800                       # Cumulative packet size per connected master and slave (bytes)
system.tol2bus.pkt_size_system.cpu2.icache.mem_side::system.l2.cpu_side         3520                       # Cumulative packet size per connected master and slave (bytes)
system.tol2bus.pkt_size_system.cpu2.dcache.mem_side::system.l2.cpu_side     10348416                       # Cumulative packet size per connected master and slave (bytes)
system.tol2bus.pkt_size_system.cpu3.icache.mem_side::system.l2.cpu_side         3392                       # Cumulative packet size per connected master and slave (bytes)
system.tol2bus.pkt_size_system.cpu3.dcache.mem_side::system.l2.cpu_side     12783168                       # Cumulative packet size per connected master and slave (bytes)
system.tol2bus.pkt_size_system.cpu4.icache.mem_side::system.l2.cpu_side         3456                       # Cumulative packet size per connected master and slave (bytes)
system.tol2bus.pkt_size_system.cpu4.dcache.mem_side::system.l2.cpu_side     10325248                       # Cumulative packet size per connected master and slave (bytes)
system.tol2bus.pkt_size_system.cpu5.icache.mem_side::system.l2.cpu_side         3520                       # Cumulative packet size per connected master and slave (bytes)
system.tol2bus.pkt_size_system.cpu5.dcache.mem_side::system.l2.cpu_side     10359040                       # Cumulative packet size per connected master and slave (bytes)
system.tol2bus.pkt_size_system.cpu6.icache.mem_side::system.l2.cpu_side         3520                       # Cumulative packet size per connected master and slave (bytes)
system.tol2bus.pkt_size_system.cpu6.dcache.mem_side::system.l2.cpu_side     10344512                       # Cumulative packet size per connected master and slave (bytes)
system.tol2bus.pkt_size_system.cpu7.icache.mem_side::system.l2.cpu_side         3392                       # Cumulative packet size per connected master and slave (bytes)
system.tol2bus.pkt_size_system.cpu7.dcache.mem_side::system.l2.cpu_side     10341376                       # Cumulative packet size per connected master and slave (bytes)
system.tol2bus.pkt_size::total               88534656                       # Cumulative packet size per connected master and slave (bytes)
system.tol2bus.snoops                          977665                       # Total snoops (count)
system.tol2bus.snoop_fanout::samples          2361030                       # Request fanout histogram
system.tol2bus.snoop_fanout::mean                  15                       # Request fanout histogram
system.tol2bus.snoop_fanout::stdev                  0                       # Request fanout histogram
system.tol2bus.snoop_fanout::underflows             0      0.00%      0.00% # Request fanout histogram
system.tol2bus.snoop_fanout::0                      0      0.00%      0.00% # Request fanout histogram
system.tol2bus.snoop_fanout::1                      0      0.00%      0.00% # Request fanout histogram
system.tol2bus.snoop_fanout::2                      0      0.00%      0.00% # Request fanout histogram
system.tol2bus.snoop_fanout::3                      0      0.00%      0.00% # Request fanout histogram
system.tol2bus.snoop_fanout::4                      0      0.00%      0.00% # Request fanout histogram
system.tol2bus.snoop_fanout::5                      0      0.00%      0.00% # Request fanout histogram
system.tol2bus.snoop_fanout::6                      0      0.00%      0.00% # Request fanout histogram
system.tol2bus.snoop_fanout::7                      0      0.00%      0.00% # Request fanout histogram
system.tol2bus.snoop_fanout::8                      0      0.00%      0.00% # Request fanout histogram
system.tol2bus.snoop_fanout::9                      0      0.00%      0.00% # Request fanout histogram
system.tol2bus.snoop_fanout::10                     0      0.00%      0.00% # Request fanout histogram
system.tol2bus.snoop_fanout::11                     0      0.00%      0.00% # Request fanout histogram
system.tol2bus.snoop_fanout::12                     0      0.00%      0.00% # Request fanout histogram
system.tol2bus.snoop_fanout::13                     0      0.00%      0.00% # Request fanout histogram
system.tol2bus.snoop_fanout::14                     0      0.00%      0.00% # Request fanout histogram
system.tol2bus.snoop_fanout::15               2361030    100.00%    100.00% # Request fanout histogram
system.tol2bus.snoop_fanout::16                     0      0.00%    100.00% # Request fanout histogram
system.tol2bus.snoop_fanout::overflows              0      0.00%    100.00% # Request fanout histogram
system.tol2bus.snoop_fanout::min_value             15                       # Request fanout histogram
system.tol2bus.snoop_fanout::max_value             15                       # Request fanout histogram
system.tol2bus.snoop_fanout::total            2361030                       # Request fanout histogram
system.tol2bus.reqLayer0.occupancy         1399644998                       # Layer occupancy (ticks)
system.tol2bus.reqLayer0.utilization             86.3                       # Layer utilization (%)
system.tol2bus.respLayer0.occupancy           1021727                       # Layer occupancy (ticks)
system.tol2bus.respLayer0.utilization             0.1                       # Layer utilization (%)
system.tol2bus.respLayer1.occupancy         412297238                       # Layer occupancy (ticks)
system.tol2bus.respLayer1.utilization            25.4                       # Layer utilization (%)
system.tol2bus.respLayer4.occupancy             85239                       # Layer occupancy (ticks)
system.tol2bus.respLayer4.utilization             0.0                       # Layer utilization (%)
system.tol2bus.respLayer5.occupancy         404215863                       # Layer occupancy (ticks)
system.tol2bus.respLayer5.utilization            24.9                       # Layer utilization (%)
system.tol2bus.respLayer8.occupancy             94945                       # Layer occupancy (ticks)
system.tol2bus.respLayer8.utilization             0.0                       # Layer utilization (%)
system.tol2bus.respLayer9.occupancy         404026475                       # Layer occupancy (ticks)
system.tol2bus.respLayer9.utilization            24.9                       # Layer utilization (%)
system.tol2bus.respLayer12.occupancy            87451                       # Layer occupancy (ticks)
system.tol2bus.respLayer12.utilization            0.0                       # Layer utilization (%)
system.tol2bus.respLayer13.occupancy        404309381                       # Layer occupancy (ticks)
system.tol2bus.respLayer13.utilization           24.9                       # Layer utilization (%)
system.tol2bus.respLayer16.occupancy            88452                       # Layer occupancy (ticks)
system.tol2bus.respLayer16.utilization            0.0                       # Layer utilization (%)
system.tol2bus.respLayer17.occupancy        404143714                       # Layer occupancy (ticks)
system.tol2bus.respLayer17.utilization           24.9                       # Layer utilization (%)
system.tol2bus.respLayer20.occupancy            86710                       # Layer occupancy (ticks)
system.tol2bus.respLayer20.utilization            0.0                       # Layer utilization (%)
system.tol2bus.respLayer21.occupancy        403994973                       # Layer occupancy (ticks)
system.tol2bus.respLayer21.utilization           24.9                       # Layer utilization (%)
system.tol2bus.respLayer24.occupancy            87954                       # Layer occupancy (ticks)
system.tol2bus.respLayer24.utilization            0.0                       # Layer utilization (%)
system.tol2bus.respLayer25.occupancy        404186584                       # Layer occupancy (ticks)
system.tol2bus.respLayer25.utilization           24.9                       # Layer utilization (%)
system.tol2bus.respLayer28.occupancy            83220                       # Layer occupancy (ticks)
system.tol2bus.respLayer28.utilization            0.0                       # Layer utilization (%)
system.tol2bus.respLayer29.occupancy        404155065                       # Layer occupancy (ticks)
system.tol2bus.respLayer29.utilization           24.9                       # Layer utilization (%)

---------- End Simulation Statistics   ----------
