
---------- Begin Simulation Statistics ----------
sim_seconds                                  0.000047                       # Number of seconds simulated
sim_ticks                                    46772500                       # Number of ticks simulated
final_tick                                   46772500                       # Number of ticks from beginning of simulation (restored from checkpoints and never reset)
sim_freq                                 1000000000000                       # Frequency of simulated ticks
host_inst_rate                                 164867                       # Simulator instruction rate (inst/s)
host_op_rate                                   172402                       # Simulator op (including micro ops) rate (op/s)
host_tick_rate                               27485909                       # Simulator tick rate (ticks/s)
host_mem_usage                                 686112                       # Number of bytes of host memory used
host_seconds                                     1.70                       # Real time elapsed on the host
sim_insts                                      280545                       # Number of instructions simulated
sim_ops                                        293372                       # Number of ops (including micro ops) simulated
system.voltage_domain.voltage                       1                       # Voltage in Volts
system.clk_domain.clock                          1000                       # Clock period in ticks
system.mem_ctrls.bytes_read::cpu0.inst          31936                       # Number of bytes read from this memory
system.mem_ctrls.bytes_read::cpu0.data          23168                       # Number of bytes read from this memory
system.mem_ctrls.bytes_read::cpu1.inst            704                       # Number of bytes read from this memory
system.mem_ctrls.bytes_read::cpu1.data            256                       # Number of bytes read from this memory
system.mem_ctrls.bytes_read::cpu2.inst           1024                       # Number of bytes read from this memory
system.mem_ctrls.bytes_read::cpu2.data            320                       # Number of bytes read from this memory
system.mem_ctrls.bytes_read::cpu3.inst             64                       # Number of bytes read from this memory
system.mem_ctrls.bytes_read::cpu3.data            320                       # Number of bytes read from this memory
system.mem_ctrls.bytes_read::cpu4.inst            192                       # Number of bytes read from this memory
system.mem_ctrls.bytes_read::cpu4.data            320                       # Number of bytes read from this memory
system.mem_ctrls.bytes_read::cpu5.data            256                       # Number of bytes read from this memory
system.mem_ctrls.bytes_read::cpu6.inst             64                       # Number of bytes read from this memory
system.mem_ctrls.bytes_read::cpu6.data            256                       # Number of bytes read from this memory
system.mem_ctrls.bytes_read::cpu7.inst            128                       # Number of bytes read from this memory
system.mem_ctrls.bytes_read::cpu7.data            256                       # Number of bytes read from this memory
system.mem_ctrls.bytes_read::total              59264                       # Number of bytes read from this memory
system.mem_ctrls.bytes_inst_read::cpu0.inst        31936                       # Number of instructions bytes read from this memory
system.mem_ctrls.bytes_inst_read::cpu1.inst          704                       # Number of instructions bytes read from this memory
system.mem_ctrls.bytes_inst_read::cpu2.inst         1024                       # Number of instructions bytes read from this memory
system.mem_ctrls.bytes_inst_read::cpu3.inst           64                       # Number of instructions bytes read from this memory
system.mem_ctrls.bytes_inst_read::cpu4.inst          192                       # Number of instructions bytes read from this memory
system.mem_ctrls.bytes_inst_read::cpu6.inst           64                       # Number of instructions bytes read from this memory
system.mem_ctrls.bytes_inst_read::cpu7.inst          128                       # Number of instructions bytes read from this memory
system.mem_ctrls.bytes_inst_read::total         34112                       # Number of instructions bytes read from this memory
system.mem_ctrls.num_reads::cpu0.inst             499                       # Number of read requests responded to by this memory
system.mem_ctrls.num_reads::cpu0.data             362                       # Number of read requests responded to by this memory
system.mem_ctrls.num_reads::cpu1.inst              11                       # Number of read requests responded to by this memory
system.mem_ctrls.num_reads::cpu1.data               4                       # Number of read requests responded to by this memory
system.mem_ctrls.num_reads::cpu2.inst              16                       # Number of read requests responded to by this memory
system.mem_ctrls.num_reads::cpu2.data               5                       # Number of read requests responded to by this memory
system.mem_ctrls.num_reads::cpu3.inst               1                       # Number of read requests responded to by this memory
system.mem_ctrls.num_reads::cpu3.data               5                       # Number of read requests responded to by this memory
system.mem_ctrls.num_reads::cpu4.inst               3                       # Number of read requests responded to by this memory
system.mem_ctrls.num_reads::cpu4.data               5                       # Number of read requests responded to by this memory
system.mem_ctrls.num_reads::cpu5.data               4                       # Number of read requests responded to by this memory
system.mem_ctrls.num_reads::cpu6.inst               1                       # Number of read requests responded to by this memory
system.mem_ctrls.num_reads::cpu6.data               4                       # Number of read requests responded to by this memory
system.mem_ctrls.num_reads::cpu7.inst               2                       # Number of read requests responded to by this memory
system.mem_ctrls.num_reads::cpu7.data               4                       # Number of read requests responded to by this memory
system.mem_ctrls.num_reads::total                 926                       # Number of read requests responded to by this memory
system.mem_ctrls.bw_read::cpu0.inst         682794377                       # Total read bandwidth from this memory (bytes/s)
system.mem_ctrls.bw_read::cpu0.data         495333797                       # Total read bandwidth from this memory (bytes/s)
system.mem_ctrls.bw_read::cpu1.inst          15051579                       # Total read bandwidth from this memory (bytes/s)
system.mem_ctrls.bw_read::cpu1.data           5473302                       # Total read bandwidth from this memory (bytes/s)
system.mem_ctrls.bw_read::cpu2.inst          21893206                       # Total read bandwidth from this memory (bytes/s)
system.mem_ctrls.bw_read::cpu2.data           6841627                       # Total read bandwidth from this memory (bytes/s)
system.mem_ctrls.bw_read::cpu3.inst           1368325                       # Total read bandwidth from this memory (bytes/s)
system.mem_ctrls.bw_read::cpu3.data           6841627                       # Total read bandwidth from this memory (bytes/s)
system.mem_ctrls.bw_read::cpu4.inst           4104976                       # Total read bandwidth from this memory (bytes/s)
system.mem_ctrls.bw_read::cpu4.data           6841627                       # Total read bandwidth from this memory (bytes/s)
system.mem_ctrls.bw_read::cpu5.data           5473302                       # Total read bandwidth from this memory (bytes/s)
system.mem_ctrls.bw_read::cpu6.inst           1368325                       # Total read bandwidth from this memory (bytes/s)
system.mem_ctrls.bw_read::cpu6.data           5473302                       # Total read bandwidth from this memory (bytes/s)
system.mem_ctrls.bw_read::cpu7.inst           2736651                       # Total read bandwidth from this memory (bytes/s)
system.mem_ctrls.bw_read::cpu7.data           5473302                       # Total read bandwidth from this memory (bytes/s)
system.mem_ctrls.bw_read::total            1267069325                       # Total read bandwidth from this memory (bytes/s)
system.mem_ctrls.bw_inst_read::cpu0.inst    682794377                       # Instruction read bandwidth from this memory (bytes/s)
system.mem_ctrls.bw_inst_read::cpu1.inst     15051579                       # Instruction read bandwidth from this memory (bytes/s)
system.mem_ctrls.bw_inst_read::cpu2.inst     21893206                       # Instruction read bandwidth from this memory (bytes/s)
system.mem_ctrls.bw_inst_read::cpu3.inst      1368325                       # Instruction read bandwidth from this memory (bytes/s)
system.mem_ctrls.bw_inst_read::cpu4.inst      4104976                       # Instruction read bandwidth from this memory (bytes/s)
system.mem_ctrls.bw_inst_read::cpu6.inst      1368325                       # Instruction read bandwidth from this memory (bytes/s)
system.mem_ctrls.bw_inst_read::cpu7.inst      2736651                       # Instruction read bandwidth from this memory (bytes/s)
system.mem_ctrls.bw_inst_read::total        729317441                       # Instruction read bandwidth from this memory (bytes/s)
system.mem_ctrls.bw_total::cpu0.inst        682794377                       # Total bandwidth to/from this memory (bytes/s)
system.mem_ctrls.bw_total::cpu0.data        495333797                       # Total bandwidth to/from this memory (bytes/s)
system.mem_ctrls.bw_total::cpu1.inst         15051579                       # Total bandwidth to/from this memory (bytes/s)
system.mem_ctrls.bw_total::cpu1.data          5473302                       # Total bandwidth to/from this memory (bytes/s)
system.mem_ctrls.bw_total::cpu2.inst         21893206                       # Total bandwidth to/from this memory (bytes/s)
system.mem_ctrls.bw_total::cpu2.data          6841627                       # Total bandwidth to/from this memory (bytes/s)
system.mem_ctrls.bw_total::cpu3.inst          1368325                       # Total bandwidth to/from this memory (bytes/s)
system.mem_ctrls.bw_total::cpu3.data          6841627                       # Total bandwidth to/from this memory (bytes/s)
system.mem_ctrls.bw_total::cpu4.inst          4104976                       # Total bandwidth to/from this memory (bytes/s)
system.mem_ctrls.bw_total::cpu4.data          6841627                       # Total bandwidth to/from this memory (bytes/s)
system.mem_ctrls.bw_total::cpu5.data          5473302                       # Total bandwidth to/from this memory (bytes/s)
system.mem_ctrls.bw_total::cpu6.inst          1368325                       # Total bandwidth to/from this memory (bytes/s)
system.mem_ctrls.bw_total::cpu6.data          5473302                       # Total bandwidth to/from this memory (bytes/s)
system.mem_ctrls.bw_total::cpu7.inst          2736651                       # Total bandwidth to/from this memory (bytes/s)
system.mem_ctrls.bw_total::cpu7.data          5473302                       # Total bandwidth to/from this memory (bytes/s)
system.mem_ctrls.bw_total::total           1267069325                       # Total bandwidth to/from this memory (bytes/s)
system.mem_ctrls.readReqs                         927                       # Number of read requests accepted
system.mem_ctrls.writeReqs                          0                       # Number of write requests accepted
system.mem_ctrls.readBursts                       927                       # Number of DRAM read bursts, including those serviced by the write queue
system.mem_ctrls.writeBursts                        0                       # Number of DRAM write bursts, including those merged in the write queue
system.mem_ctrls.bytesReadDRAM                  59264                       # Total number of bytes read from DRAM
system.mem_ctrls.bytesReadWrQ                       0                       # Total number of bytes read from write queue
system.mem_ctrls.bytesWritten                       0                       # Total number of bytes written to DRAM
system.mem_ctrls.bytesReadSys                   59328                       # Total read bytes from the system interface side
system.mem_ctrls.bytesWrittenSys                    0                       # Total written bytes from the system interface side
system.mem_ctrls.servicedByWrQ                      0                       # Number of DRAM read bursts serviced by the write queue
system.mem_ctrls.mergedWrBursts                     0                       # Number of DRAM write bursts merged with an existing one
system.mem_ctrls.neitherReadNorWriteReqs           18                       # Number of requests that are neither read nor write
system.mem_ctrls.perBankRdBursts::0               118                       # Per bank write bursts
system.mem_ctrls.perBankRdBursts::1               127                       # Per bank write bursts
system.mem_ctrls.perBankRdBursts::2               133                       # Per bank write bursts
system.mem_ctrls.perBankRdBursts::3               200                       # Per bank write bursts
system.mem_ctrls.perBankRdBursts::4                52                       # Per bank write bursts
system.mem_ctrls.perBankRdBursts::5                17                       # Per bank write bursts
system.mem_ctrls.perBankRdBursts::6                82                       # Per bank write bursts
system.mem_ctrls.perBankRdBursts::7                31                       # Per bank write bursts
system.mem_ctrls.perBankRdBursts::8                14                       # Per bank write bursts
system.mem_ctrls.perBankRdBursts::9                10                       # Per bank write bursts
system.mem_ctrls.perBankRdBursts::10                0                       # Per bank write bursts
system.mem_ctrls.perBankRdBursts::11               12                       # Per bank write bursts
system.mem_ctrls.perBankRdBursts::12                6                       # Per bank write bursts
system.mem_ctrls.perBankRdBursts::13               33                       # Per bank write bursts
system.mem_ctrls.perBankRdBursts::14               37                       # Per bank write bursts
system.mem_ctrls.perBankRdBursts::15               54                       # Per bank write bursts
system.mem_ctrls.perBankWrBursts::0                 0                       # Per bank write bursts
system.mem_ctrls.perBankWrBursts::1                 0                       # Per bank write bursts
system.mem_ctrls.perBankWrBursts::2                 0                       # Per bank write bursts
system.mem_ctrls.perBankWrBursts::3                 0                       # Per bank write bursts
system.mem_ctrls.perBankWrBursts::4                 0                       # Per bank write bursts
system.mem_ctrls.perBankWrBursts::5                 0                       # Per bank write bursts
system.mem_ctrls.perBankWrBursts::6                 0                       # Per bank write bursts
system.mem_ctrls.perBankWrBursts::7                 0                       # Per bank write bursts
system.mem_ctrls.perBankWrBursts::8                 0                       # Per bank write bursts
system.mem_ctrls.perBankWrBursts::9                 0                       # Per bank write bursts
system.mem_ctrls.perBankWrBursts::10                0                       # Per bank write bursts
system.mem_ctrls.perBankWrBursts::11                0                       # Per bank write bursts
system.mem_ctrls.perBankWrBursts::12                0                       # Per bank write bursts
system.mem_ctrls.perBankWrBursts::13                0                       # Per bank write bursts
system.mem_ctrls.perBankWrBursts::14                0                       # Per bank write bursts
system.mem_ctrls.perBankWrBursts::15                0                       # Per bank write bursts
system.mem_ctrls.numRdRetry                         0                       # Number of times read queue was full causing retry
system.mem_ctrls.numWrRetry                         0                       # Number of times write queue was full causing retry
system.mem_ctrls.totGap                      46733000                       # Total gap between requests
system.mem_ctrls.readPktSize::0                     0                       # Read request sizes (log2)
system.mem_ctrls.readPktSize::1                     0                       # Read request sizes (log2)
system.mem_ctrls.readPktSize::2                     0                       # Read request sizes (log2)
system.mem_ctrls.readPktSize::3                     0                       # Read request sizes (log2)
system.mem_ctrls.readPktSize::4                     0                       # Read request sizes (log2)
system.mem_ctrls.readPktSize::5                     0                       # Read request sizes (log2)
system.mem_ctrls.readPktSize::6                   927                       # Read request sizes (log2)
system.mem_ctrls.writePktSize::0                    0                       # Write request sizes (log2)
system.mem_ctrls.writePktSize::1                    0                       # Write request sizes (log2)
system.mem_ctrls.writePktSize::2                    0                       # Write request sizes (log2)
system.mem_ctrls.writePktSize::3                    0                       # Write request sizes (log2)
system.mem_ctrls.writePktSize::4                    0                       # Write request sizes (log2)
system.mem_ctrls.writePktSize::5                    0                       # Write request sizes (log2)
system.mem_ctrls.writePktSize::6                    0                       # Write request sizes (log2)
system.mem_ctrls.rdQLenPdf::0                     499                       # What read queue length does an incoming req see
system.mem_ctrls.rdQLenPdf::1                     301                       # What read queue length does an incoming req see
system.mem_ctrls.rdQLenPdf::2                      78                       # What read queue length does an incoming req see
system.mem_ctrls.rdQLenPdf::3                      29                       # What read queue length does an incoming req see
system.mem_ctrls.rdQLenPdf::4                      12                       # What read queue length does an incoming req see
system.mem_ctrls.rdQLenPdf::5                       5                       # What read queue length does an incoming req see
system.mem_ctrls.rdQLenPdf::6                       2                       # What read queue length does an incoming req see
system.mem_ctrls.rdQLenPdf::7                       1                       # What read queue length does an incoming req see
system.mem_ctrls.rdQLenPdf::8                       0                       # What read queue length does an incoming req see
system.mem_ctrls.rdQLenPdf::9                       0                       # What read queue length does an incoming req see
system.mem_ctrls.rdQLenPdf::10                      0                       # What read queue length does an incoming req see
system.mem_ctrls.rdQLenPdf::11                      0                       # What read queue length does an incoming req see
system.mem_ctrls.rdQLenPdf::12                      0                       # What read queue length does an incoming req see
system.mem_ctrls.rdQLenPdf::13                      0                       # What read queue length does an incoming req see
system.mem_ctrls.rdQLenPdf::14                      0                       # What read queue length does an incoming req see
system.mem_ctrls.rdQLenPdf::15                      0                       # What read queue length does an incoming req see
system.mem_ctrls.rdQLenPdf::16                      0                       # What read queue length does an incoming req see
system.mem_ctrls.rdQLenPdf::17                      0                       # What read queue length does an incoming req see
system.mem_ctrls.rdQLenPdf::18                      0                       # What read queue length does an incoming req see
system.mem_ctrls.rdQLenPdf::19                      0                       # What read queue length does an incoming req see
system.mem_ctrls.rdQLenPdf::20                      0                       # What read queue length does an incoming req see
system.mem_ctrls.rdQLenPdf::21                      0                       # What read queue length does an incoming req see
system.mem_ctrls.rdQLenPdf::22                      0                       # What read queue length does an incoming req see
system.mem_ctrls.rdQLenPdf::23                      0                       # What read queue length does an incoming req see
system.mem_ctrls.rdQLenPdf::24                      0                       # What read queue length does an incoming req see
system.mem_ctrls.rdQLenPdf::25                      0                       # What read queue length does an incoming req see
system.mem_ctrls.rdQLenPdf::26                      0                       # What read queue length does an incoming req see
system.mem_ctrls.rdQLenPdf::27                      0                       # What read queue length does an incoming req see
system.mem_ctrls.rdQLenPdf::28                      0                       # What read queue length does an incoming req see
system.mem_ctrls.rdQLenPdf::29                      0                       # What read queue length does an incoming req see
system.mem_ctrls.rdQLenPdf::30                      0                       # What read queue length does an incoming req see
system.mem_ctrls.rdQLenPdf::31                      0                       # What read queue length does an incoming req see
system.mem_ctrls.wrQLenPdf::0                       0                       # What write queue length does an incoming req see
system.mem_ctrls.wrQLenPdf::1                       0                       # What write queue length does an incoming req see
system.mem_ctrls.wrQLenPdf::2                       0                       # What write queue length does an incoming req see
system.mem_ctrls.wrQLenPdf::3                       0                       # What write queue length does an incoming req see
system.mem_ctrls.wrQLenPdf::4                       0                       # What write queue length does an incoming req see
system.mem_ctrls.wrQLenPdf::5                       0                       # What write queue length does an incoming req see
system.mem_ctrls.wrQLenPdf::6                       0                       # What write queue length does an incoming req see
system.mem_ctrls.wrQLenPdf::7                       0                       # What write queue length does an incoming req see
system.mem_ctrls.wrQLenPdf::8                       0                       # What write queue length does an incoming req see
system.mem_ctrls.wrQLenPdf::9                       0                       # What write queue length does an incoming req see
system.mem_ctrls.wrQLenPdf::10                      0                       # What write queue length does an incoming req see
system.mem_ctrls.wrQLenPdf::11                      0                       # What write queue length does an incoming req see
system.mem_ctrls.wrQLenPdf::12                      0                       # What write queue length does an incoming req see
system.mem_ctrls.wrQLenPdf::13                      0                       # What write queue length does an incoming req see
system.mem_ctrls.wrQLenPdf::14                      0                       # What write queue length does an incoming req see
system.mem_ctrls.wrQLenPdf::15                      0                       # What write queue length does an incoming req see
system.mem_ctrls.wrQLenPdf::16                      0                       # What write queue length does an incoming req see
system.mem_ctrls.wrQLenPdf::17                      0                       # What write queue length does an incoming req see
system.mem_ctrls.wrQLenPdf::18                      0                       # What write queue length does an incoming req see
system.mem_ctrls.wrQLenPdf::19                      0                       # What write queue length does an incoming req see
system.mem_ctrls.wrQLenPdf::20                      0                       # What write queue length does an incoming req see
system.mem_ctrls.wrQLenPdf::21                      0                       # What write queue length does an incoming req see
system.mem_ctrls.wrQLenPdf::22                      0                       # What write queue length does an incoming req see
system.mem_ctrls.wrQLenPdf::23                      0                       # What write queue length does an incoming req see
system.mem_ctrls.wrQLenPdf::24                      0                       # What write queue length does an incoming req see
system.mem_ctrls.wrQLenPdf::25                      0                       # What write queue length does an incoming req see
system.mem_ctrls.wrQLenPdf::26                      0                       # What write queue length does an incoming req see
system.mem_ctrls.wrQLenPdf::27                      0                       # What write queue length does an incoming req see
system.mem_ctrls.wrQLenPdf::28                      0                       # What write queue length does an incoming req see
system.mem_ctrls.wrQLenPdf::29                      0                       # What write queue length does an incoming req see
system.mem_ctrls.wrQLenPdf::30                      0                       # What write queue length does an incoming req see
system.mem_ctrls.wrQLenPdf::31                      0                       # What write queue length does an incoming req see
system.mem_ctrls.wrQLenPdf::32                      0                       # What write queue length does an incoming req see
system.mem_ctrls.wrQLenPdf::33                      0                       # What write queue length does an incoming req see
system.mem_ctrls.wrQLenPdf::34                      0                       # What write queue length does an incoming req see
system.mem_ctrls.wrQLenPdf::35                      0                       # What write queue length does an incoming req see
system.mem_ctrls.wrQLenPdf::36                      0                       # What write queue length does an incoming req see
system.mem_ctrls.wrQLenPdf::37                      0                       # What write queue length does an incoming req see
system.mem_ctrls.wrQLenPdf::38                      0                       # What write queue length does an incoming req see
system.mem_ctrls.wrQLenPdf::39                      0                       # What write queue length does an incoming req see
system.mem_ctrls.wrQLenPdf::40                      0                       # What write queue length does an incoming req see
system.mem_ctrls.wrQLenPdf::41                      0                       # What write queue length does an incoming req see
system.mem_ctrls.wrQLenPdf::42                      0                       # What write queue length does an incoming req see
system.mem_ctrls.wrQLenPdf::43                      0                       # What write queue length does an incoming req see
system.mem_ctrls.wrQLenPdf::44                      0                       # What write queue length does an incoming req see
system.mem_ctrls.wrQLenPdf::45                      0                       # What write queue length does an incoming req see
system.mem_ctrls.wrQLenPdf::46                      0                       # What write queue length does an incoming req see
system.mem_ctrls.wrQLenPdf::47                      0                       # What write queue length does an incoming req see
system.mem_ctrls.wrQLenPdf::48                      0                       # What write queue length does an incoming req see
system.mem_ctrls.wrQLenPdf::49                      0                       # What write queue length does an incoming req see
system.mem_ctrls.wrQLenPdf::50                      0                       # What write queue length does an incoming req see
system.mem_ctrls.wrQLenPdf::51                      0                       # What write queue length does an incoming req see
system.mem_ctrls.wrQLenPdf::52                      0                       # What write queue length does an incoming req see
system.mem_ctrls.wrQLenPdf::53                      0                       # What write queue length does an incoming req see
system.mem_ctrls.wrQLenPdf::54                      0                       # What write queue length does an incoming req see
system.mem_ctrls.wrQLenPdf::55                      0                       # What write queue length does an incoming req see
system.mem_ctrls.wrQLenPdf::56                      0                       # What write queue length does an incoming req see
system.mem_ctrls.wrQLenPdf::57                      0                       # What write queue length does an incoming req see
system.mem_ctrls.wrQLenPdf::58                      0                       # What write queue length does an incoming req see
system.mem_ctrls.wrQLenPdf::59                      0                       # What write queue length does an incoming req see
system.mem_ctrls.wrQLenPdf::60                      0                       # What write queue length does an incoming req see
system.mem_ctrls.wrQLenPdf::61                      0                       # What write queue length does an incoming req see
system.mem_ctrls.wrQLenPdf::62                      0                       # What write queue length does an incoming req see
system.mem_ctrls.wrQLenPdf::63                      0                       # What write queue length does an incoming req see
system.mem_ctrls.bytesPerActivate::samples          220                       # Bytes accessed per row activation
system.mem_ctrls.bytesPerActivate::mean    269.381818                       # Bytes accessed per row activation
system.mem_ctrls.bytesPerActivate::gmean   156.500244                       # Bytes accessed per row activation
system.mem_ctrls.bytesPerActivate::stdev   307.401511                       # Bytes accessed per row activation
system.mem_ctrls.bytesPerActivate::0-127          100     45.45%     45.45% # Bytes accessed per row activation
system.mem_ctrls.bytesPerActivate::128-255           45     20.45%     65.91% # Bytes accessed per row activation
system.mem_ctrls.bytesPerActivate::256-383           23     10.45%     76.36% # Bytes accessed per row activation
system.mem_ctrls.bytesPerActivate::384-511            9      4.09%     80.45% # Bytes accessed per row activation
system.mem_ctrls.bytesPerActivate::512-639            7      3.18%     83.64% # Bytes accessed per row activation
system.mem_ctrls.bytesPerActivate::640-767            9      4.09%     87.73% # Bytes accessed per row activation
system.mem_ctrls.bytesPerActivate::768-895            5      2.27%     90.00% # Bytes accessed per row activation
system.mem_ctrls.bytesPerActivate::896-1023            3      1.36%     91.36% # Bytes accessed per row activation
system.mem_ctrls.bytesPerActivate::1024-1151           19      8.64%    100.00% # Bytes accessed per row activation
system.mem_ctrls.bytesPerActivate::total          220                       # Bytes accessed per row activation
system.mem_ctrls.totQLat                     11531500                       # Total ticks spent queuing
system.mem_ctrls.totMemAccLat                28894000                       # Total ticks spent from burst creation until serviced by the DRAM
system.mem_ctrls.totBusLat                    4630000                       # Total ticks spent in databus transfers
system.mem_ctrls.avgQLat                     12439.59                       # Average queueing delay per DRAM burst
system.mem_ctrls.avgBusLat                    4994.61                       # Average bus latency per DRAM burst
system.mem_ctrls.avgMemAccLat                31169.36                       # Average memory access latency per DRAM burst
system.mem_ctrls.avgRdBW                      1267.07                       # Average DRAM read bandwidth in MiByte/s
system.mem_ctrls.avgWrBW                         0.00                       # Average achieved write bandwidth in MiByte/s
system.mem_ctrls.avgRdBWSys                   1268.44                       # Average system read bandwidth in MiByte/s
system.mem_ctrls.avgWrBWSys                      0.00                       # Average system write bandwidth in MiByte/s
system.mem_ctrls.peakBW                      12800.00                       # Theoretical peak bandwidth in MiByte/s
system.mem_ctrls.busUtil                         9.90                       # Data bus utilization in percentage
system.mem_ctrls.busUtilRead                     9.90                       # Data bus utilization in percentage for reads
system.mem_ctrls.busUtilWrite                    0.00                       # Data bus utilization in percentage for writes
system.mem_ctrls.avgRdQLen                       1.77                       # Average read queue length when enqueuing
system.mem_ctrls.avgWrQLen                       0.00                       # Average write queue length when enqueuing
system.mem_ctrls.readRowHits                      706                       # Number of row buffer hits during reads
system.mem_ctrls.writeRowHits                       0                       # Number of row buffer hits during writes
system.mem_ctrls.readRowHitRate                 76.16                       # Row buffer hit rate for reads
system.mem_ctrls.writeRowHitRate                  nan                       # Row buffer hit rate for writes
system.mem_ctrls.avgGap                      50413.16                       # Average gap between requests
system.mem_ctrls.pageHitRate                    76.16                       # Row buffer hit rate, read and write combined
system.mem_ctrls_0.actEnergy                  1428840                       # Energy for activate commands per rank (pJ)
system.mem_ctrls_0.preEnergy                   779625                       # Energy for precharge commands per rank (pJ)
system.mem_ctrls_0.readEnergy                 5928000                       # Energy for read commands per rank (pJ)
system.mem_ctrls_0.writeEnergy                      0                       # Energy for write commands per rank (pJ)
system.mem_ctrls_0.refreshEnergy              3051360                       # Energy for refresh commands per rank (pJ)
system.mem_ctrls_0.actBackEnergy             31681170                       # Energy for active background per rank (pJ)
system.mem_ctrls_0.preBackEnergy               396000                       # Energy for precharge background per rank (pJ)
system.mem_ctrls_0.totalEnergy               43264995                       # Total energy per rank (pJ)
system.mem_ctrls_0.averagePower            920.972700                       # Core power per rank (mW)
system.mem_ctrls_0.memoryStateTime::IDLE       479500                       # Time in different power states
system.mem_ctrls_0.memoryStateTime::REF       1300000                       # Time in different power states
system.mem_ctrls_0.memoryStateTime::PRE_PDN            0                       # Time in different power states
system.mem_ctrls_0.memoryStateTime::ACT      44951750                       # Time in different power states
system.mem_ctrls_0.memoryStateTime::ACT_PDN            0                       # Time in different power states
system.mem_ctrls_1.actEnergy                   234360                       # Energy for activate commands per rank (pJ)
system.mem_ctrls_1.preEnergy                   127875                       # Energy for precharge commands per rank (pJ)
system.mem_ctrls_1.readEnergy                 1294800                       # Energy for read commands per rank (pJ)
system.mem_ctrls_1.writeEnergy                      0                       # Energy for write commands per rank (pJ)
system.mem_ctrls_1.refreshEnergy              3051360                       # Energy for refresh commands per rank (pJ)
system.mem_ctrls_1.actBackEnergy             26405820                       # Energy for active background per rank (pJ)
system.mem_ctrls_1.preBackEnergy              5025000                       # Energy for precharge background per rank (pJ)
system.mem_ctrls_1.totalEnergy               36139215                       # Total energy per rank (pJ)
system.mem_ctrls_1.averagePower            769.246807                       # Core power per rank (mW)
system.mem_ctrls_1.memoryStateTime::IDLE      8207250                       # Time in different power states
system.mem_ctrls_1.memoryStateTime::REF       1300000                       # Time in different power states
system.mem_ctrls_1.memoryStateTime::PRE_PDN            0                       # Time in different power states
system.mem_ctrls_1.memoryStateTime::ACT      37225500                       # Time in different power states
system.mem_ctrls_1.memoryStateTime::ACT_PDN            0                       # Time in different power states
system.cpu0.branchPred.lookups                   9597                       # Number of BP lookups
system.cpu0.branchPred.condPredicted             7390                       # Number of conditional branches predicted
system.cpu0.branchPred.condIncorrect             1016                       # Number of conditional branches incorrect
system.cpu0.branchPred.BTBLookups                7146                       # Number of BTB lookups
system.cpu0.branchPred.BTBHits                   3944                       # Number of BTB hits
system.cpu0.branchPred.BTBCorrect                   0                       # Number of correct BTB predictions (this stat may not work properly.
system.cpu0.branchPred.BTBHitPct            55.191716                       # BTB Hit Percentage
system.cpu0.branchPred.usedRAS                    864                       # Number of times the RAS was used to get a target.
system.cpu0.branchPred.RASInCorrect                12                       # Number of incorrect RAS predictions.
system.cpu_voltage_domain.voltage                   1                       # Voltage in Volts
system.cpu_clk_domain.clock                       500                       # Clock period in ticks
system.cpu0.dstage2_mmu.stage2_tlb.walker.walks            0                       # Table walker walks requested
system.cpu0.dstage2_mmu.stage2_tlb.walker.walkRequestOrigin_Requested::Data            0                       # Table walker requests started/completed, data/inst
system.cpu0.dstage2_mmu.stage2_tlb.walker.walkRequestOrigin_Requested::Inst            0                       # Table walker requests started/completed, data/inst
system.cpu0.dstage2_mmu.stage2_tlb.walker.walkRequestOrigin_Requested::total            0                       # Table walker requests started/completed, data/inst
system.cpu0.dstage2_mmu.stage2_tlb.walker.walkRequestOrigin_Completed::Data            0                       # Table walker requests started/completed, data/inst
system.cpu0.dstage2_mmu.stage2_tlb.walker.walkRequestOrigin_Completed::Inst            0                       # Table walker requests started/completed, data/inst
system.cpu0.dstage2_mmu.stage2_tlb.walker.walkRequestOrigin_Completed::total            0                       # Table walker requests started/completed, data/inst
system.cpu0.dstage2_mmu.stage2_tlb.walker.walkRequestOrigin::total            0                       # Table walker requests started/completed, data/inst
system.cpu0.dstage2_mmu.stage2_tlb.inst_hits            0                       # ITB inst hits
system.cpu0.dstage2_mmu.stage2_tlb.inst_misses            0                       # ITB inst misses
system.cpu0.dstage2_mmu.stage2_tlb.read_hits            0                       # DTB read hits
system.cpu0.dstage2_mmu.stage2_tlb.read_misses            0                       # DTB read misses
system.cpu0.dstage2_mmu.stage2_tlb.write_hits            0                       # DTB write hits
system.cpu0.dstage2_mmu.stage2_tlb.write_misses            0                       # DTB write misses
system.cpu0.dstage2_mmu.stage2_tlb.flush_tlb            0                       # Number of times complete TLB was flushed
system.cpu0.dstage2_mmu.stage2_tlb.flush_tlb_mva            0                       # Number of times TLB was flushed by MVA
system.cpu0.dstage2_mmu.stage2_tlb.flush_tlb_mva_asid            0                       # Number of times TLB was flushed by MVA & ASID
system.cpu0.dstage2_mmu.stage2_tlb.flush_tlb_asid            0                       # Number of times TLB was flushed by ASID
system.cpu0.dstage2_mmu.stage2_tlb.flush_entries            0                       # Number of entries that have been flushed from TLB
system.cpu0.dstage2_mmu.stage2_tlb.align_faults            0                       # Number of TLB faults due to alignment restrictions
system.cpu0.dstage2_mmu.stage2_tlb.prefetch_faults            0                       # Number of TLB faults due to prefetch
system.cpu0.dstage2_mmu.stage2_tlb.domain_faults            0                       # Number of TLB faults due to domain restrictions
system.cpu0.dstage2_mmu.stage2_tlb.perms_faults            0                       # Number of TLB faults due to permissions restrictions
system.cpu0.dstage2_mmu.stage2_tlb.read_accesses            0                       # DTB read accesses
system.cpu0.dstage2_mmu.stage2_tlb.write_accesses            0                       # DTB write accesses
system.cpu0.dstage2_mmu.stage2_tlb.inst_accesses            0                       # ITB inst accesses
system.cpu0.dstage2_mmu.stage2_tlb.hits             0                       # DTB hits
system.cpu0.dstage2_mmu.stage2_tlb.misses            0                       # DTB misses
system.cpu0.dstage2_mmu.stage2_tlb.accesses            0                       # DTB accesses
system.cpu0.dtb.walker.walks                        0                       # Table walker walks requested
system.cpu0.dtb.walker.walkRequestOrigin_Requested::Data            0                       # Table walker requests started/completed, data/inst
system.cpu0.dtb.walker.walkRequestOrigin_Requested::Inst            0                       # Table walker requests started/completed, data/inst
system.cpu0.dtb.walker.walkRequestOrigin_Requested::total            0                       # Table walker requests started/completed, data/inst
system.cpu0.dtb.walker.walkRequestOrigin_Completed::Data            0                       # Table walker requests started/completed, data/inst
system.cpu0.dtb.walker.walkRequestOrigin_Completed::Inst            0                       # Table walker requests started/completed, data/inst
system.cpu0.dtb.walker.walkRequestOrigin_Completed::total            0                       # Table walker requests started/completed, data/inst
system.cpu0.dtb.walker.walkRequestOrigin::total            0                       # Table walker requests started/completed, data/inst
system.cpu0.dtb.inst_hits                           0                       # ITB inst hits
system.cpu0.dtb.inst_misses                         0                       # ITB inst misses
system.cpu0.dtb.read_hits                           0                       # DTB read hits
system.cpu0.dtb.read_misses                         0                       # DTB read misses
system.cpu0.dtb.write_hits                          0                       # DTB write hits
system.cpu0.dtb.write_misses                        0                       # DTB write misses
system.cpu0.dtb.flush_tlb                           0                       # Number of times complete TLB was flushed
system.cpu0.dtb.flush_tlb_mva                       0                       # Number of times TLB was flushed by MVA
system.cpu0.dtb.flush_tlb_mva_asid                  0                       # Number of times TLB was flushed by MVA & ASID
system.cpu0.dtb.flush_tlb_asid                      0                       # Number of times TLB was flushed by ASID
system.cpu0.dtb.flush_entries                       0                       # Number of entries that have been flushed from TLB
system.cpu0.dtb.align_faults                        0                       # Number of TLB faults due to alignment restrictions
system.cpu0.dtb.prefetch_faults                     0                       # Number of TLB faults due to prefetch
system.cpu0.dtb.domain_faults                       0                       # Number of TLB faults due to domain restrictions
system.cpu0.dtb.perms_faults                        0                       # Number of TLB faults due to permissions restrictions
system.cpu0.dtb.read_accesses                       0                       # DTB read accesses
system.cpu0.dtb.write_accesses                      0                       # DTB write accesses
system.cpu0.dtb.inst_accesses                       0                       # ITB inst accesses
system.cpu0.dtb.hits                                0                       # DTB hits
system.cpu0.dtb.misses                              0                       # DTB misses
system.cpu0.dtb.accesses                            0                       # DTB accesses
system.cpu0.istage2_mmu.stage2_tlb.walker.walks            0                       # Table walker walks requested
system.cpu0.istage2_mmu.stage2_tlb.walker.walkRequestOrigin_Requested::Data            0                       # Table walker requests started/completed, data/inst
system.cpu0.istage2_mmu.stage2_tlb.walker.walkRequestOrigin_Requested::Inst            0                       # Table walker requests started/completed, data/inst
system.cpu0.istage2_mmu.stage2_tlb.walker.walkRequestOrigin_Requested::total            0                       # Table walker requests started/completed, data/inst
system.cpu0.istage2_mmu.stage2_tlb.walker.walkRequestOrigin_Completed::Data            0                       # Table walker requests started/completed, data/inst
system.cpu0.istage2_mmu.stage2_tlb.walker.walkRequestOrigin_Completed::Inst            0                       # Table walker requests started/completed, data/inst
system.cpu0.istage2_mmu.stage2_tlb.walker.walkRequestOrigin_Completed::total            0                       # Table walker requests started/completed, data/inst
system.cpu0.istage2_mmu.stage2_tlb.walker.walkRequestOrigin::total            0                       # Table walker requests started/completed, data/inst
system.cpu0.istage2_mmu.stage2_tlb.inst_hits            0                       # ITB inst hits
system.cpu0.istage2_mmu.stage2_tlb.inst_misses            0                       # ITB inst misses
system.cpu0.istage2_mmu.stage2_tlb.read_hits            0                       # DTB read hits
system.cpu0.istage2_mmu.stage2_tlb.read_misses            0                       # DTB read misses
system.cpu0.istage2_mmu.stage2_tlb.write_hits            0                       # DTB write hits
system.cpu0.istage2_mmu.stage2_tlb.write_misses            0                       # DTB write misses
system.cpu0.istage2_mmu.stage2_tlb.flush_tlb            0                       # Number of times complete TLB was flushed
system.cpu0.istage2_mmu.stage2_tlb.flush_tlb_mva            0                       # Number of times TLB was flushed by MVA
system.cpu0.istage2_mmu.stage2_tlb.flush_tlb_mva_asid            0                       # Number of times TLB was flushed by MVA & ASID
system.cpu0.istage2_mmu.stage2_tlb.flush_tlb_asid            0                       # Number of times TLB was flushed by ASID
system.cpu0.istage2_mmu.stage2_tlb.flush_entries            0                       # Number of entries that have been flushed from TLB
system.cpu0.istage2_mmu.stage2_tlb.align_faults            0                       # Number of TLB faults due to alignment restrictions
system.cpu0.istage2_mmu.stage2_tlb.prefetch_faults            0                       # Number of TLB faults due to prefetch
system.cpu0.istage2_mmu.stage2_tlb.domain_faults            0                       # Number of TLB faults due to domain restrictions
system.cpu0.istage2_mmu.stage2_tlb.perms_faults            0                       # Number of TLB faults due to permissions restrictions
system.cpu0.istage2_mmu.stage2_tlb.read_accesses            0                       # DTB read accesses
system.cpu0.istage2_mmu.stage2_tlb.write_accesses            0                       # DTB write accesses
system.cpu0.istage2_mmu.stage2_tlb.inst_accesses            0                       # ITB inst accesses
system.cpu0.istage2_mmu.stage2_tlb.hits             0                       # DTB hits
system.cpu0.istage2_mmu.stage2_tlb.misses            0                       # DTB misses
system.cpu0.istage2_mmu.stage2_tlb.accesses            0                       # DTB accesses
system.cpu0.itb.walker.walks                        0                       # Table walker walks requested
system.cpu0.itb.walker.walkRequestOrigin_Requested::Data            0                       # Table walker requests started/completed, data/inst
system.cpu0.itb.walker.walkRequestOrigin_Requested::Inst            0                       # Table walker requests started/completed, data/inst
system.cpu0.itb.walker.walkRequestOrigin_Requested::total            0                       # Table walker requests started/completed, data/inst
system.cpu0.itb.walker.walkRequestOrigin_Completed::Data            0                       # Table walker requests started/completed, data/inst
system.cpu0.itb.walker.walkRequestOrigin_Completed::Inst            0                       # Table walker requests started/completed, data/inst
system.cpu0.itb.walker.walkRequestOrigin_Completed::total            0                       # Table walker requests started/completed, data/inst
system.cpu0.itb.walker.walkRequestOrigin::total            0                       # Table walker requests started/completed, data/inst
system.cpu0.itb.inst_hits                           0                       # ITB inst hits
system.cpu0.itb.inst_misses                         0                       # ITB inst misses
system.cpu0.itb.read_hits                           0                       # DTB read hits
system.cpu0.itb.read_misses                         0                       # DTB read misses
system.cpu0.itb.write_hits                          0                       # DTB write hits
system.cpu0.itb.write_misses                        0                       # DTB write misses
system.cpu0.itb.flush_tlb                           0                       # Number of times complete TLB was flushed
system.cpu0.itb.flush_tlb_mva                       0                       # Number of times TLB was flushed by MVA
system.cpu0.itb.flush_tlb_mva_asid                  0                       # Number of times TLB was flushed by MVA & ASID
system.cpu0.itb.flush_tlb_asid                      0                       # Number of times TLB was flushed by ASID
system.cpu0.itb.flush_entries                       0                       # Number of entries that have been flushed from TLB
system.cpu0.itb.align_faults                        0                       # Number of TLB faults due to alignment restrictions
system.cpu0.itb.prefetch_faults                     0                       # Number of TLB faults due to prefetch
system.cpu0.itb.domain_faults                       0                       # Number of TLB faults due to domain restrictions
system.cpu0.itb.perms_faults                        0                       # Number of TLB faults due to permissions restrictions
system.cpu0.itb.read_accesses                       0                       # DTB read accesses
system.cpu0.itb.write_accesses                      0                       # DTB write accesses
system.cpu0.itb.inst_accesses                       0                       # ITB inst accesses
system.cpu0.itb.hits                                0                       # DTB hits
system.cpu0.itb.misses                              0                       # DTB misses
system.cpu0.itb.accesses                            0                       # DTB accesses
system.cpu0.workload.num_syscalls                 251                       # Number of system calls
system.cpu0.numCycles                           93546                       # number of cpu cycles simulated
system.cpu0.numWorkItemsStarted                     0                       # number of work items this cpu started
system.cpu0.numWorkItemsCompleted                   0                       # number of work items this cpu completed
system.cpu0.fetch.icacheStallCycles             19785                       # Number of cycles fetch is stalled on an Icache miss
system.cpu0.fetch.Insts                         56849                       # Number of instructions fetch has processed
system.cpu0.fetch.Branches                       9597                       # Number of branches that fetch encountered
system.cpu0.fetch.predictedBranches              4808                       # Number of branches that fetch has predicted taken
system.cpu0.fetch.Cycles                        30971                       # Number of cycles fetch has run and was not squashing or blocked
system.cpu0.fetch.SquashCycles                   2175                       # Number of cycles fetch has spent squashing
system.cpu0.fetch.MiscStallCycles                   1                       # Number of cycles fetch has spent waiting on interrupts, or bad addresses, or out of MSHRs
system.cpu0.fetch.PendingTrapStallCycles            1                       # Number of stall cycles due to pending traps
system.cpu0.fetch.CacheLines                     6914                       # Number of cache lines fetched
system.cpu0.fetch.IcacheSquashes                  619                       # Number of outstanding Icache misses that were squashed
system.cpu0.fetch.rateDist::samples             51845                       # Number of instructions fetched each cycle (Total)
system.cpu0.fetch.rateDist::mean             1.271212                       # Number of instructions fetched each cycle (Total)
system.cpu0.fetch.rateDist::stdev            2.682802                       # Number of instructions fetched each cycle (Total)
system.cpu0.fetch.rateDist::underflows              0      0.00%      0.00% # Number of instructions fetched each cycle (Total)
system.cpu0.fetch.rateDist::0                   40656     78.42%     78.42% # Number of instructions fetched each cycle (Total)
system.cpu0.fetch.rateDist::1                     828      1.60%     80.02% # Number of instructions fetched each cycle (Total)
system.cpu0.fetch.rateDist::2                    1049      2.02%     82.04% # Number of instructions fetched each cycle (Total)
system.cpu0.fetch.rateDist::3                     665      1.28%     83.32% # Number of instructions fetched each cycle (Total)
system.cpu0.fetch.rateDist::4                     869      1.68%     85.00% # Number of instructions fetched each cycle (Total)
system.cpu0.fetch.rateDist::5                     552      1.06%     86.06% # Number of instructions fetched each cycle (Total)
system.cpu0.fetch.rateDist::6                     816      1.57%     87.64% # Number of instructions fetched each cycle (Total)
system.cpu0.fetch.rateDist::7                    1427      2.75%     90.39% # Number of instructions fetched each cycle (Total)
system.cpu0.fetch.rateDist::8                    4983      9.61%    100.00% # Number of instructions fetched each cycle (Total)
system.cpu0.fetch.rateDist::overflows               0      0.00%    100.00% # Number of instructions fetched each cycle (Total)
system.cpu0.fetch.rateDist::min_value               0                       # Number of instructions fetched each cycle (Total)
system.cpu0.fetch.rateDist::max_value               8                       # Number of instructions fetched each cycle (Total)
system.cpu0.fetch.rateDist::total               51845                       # Number of instructions fetched each cycle (Total)
system.cpu0.fetch.branchRate                 0.102591                       # Number of branch fetches per cycle
system.cpu0.fetch.rate                       0.607712                       # Number of inst fetches per cycle
system.cpu0.decode.IdleCycles                   15798                       # Number of cycles decode is idle
system.cpu0.decode.BlockedCycles                25597                       # Number of cycles decode is blocked
system.cpu0.decode.RunCycles                     8880                       # Number of cycles decode is running
system.cpu0.decode.UnblockCycles                  789                       # Number of cycles decode is unblocking
system.cpu0.decode.SquashCycles                   781                       # Number of cycles decode is squashing
system.cpu0.decode.BranchResolved                 909                       # Number of times decode resolved a branch
system.cpu0.decode.BranchMispred                  319                       # Number of times decode detected a branch misprediction
system.cpu0.decode.DecodedInsts                 58625                       # Number of instructions handled by decode
system.cpu0.decode.SquashedInsts                 1163                       # Number of squashed instructions handled by decode
system.cpu0.rename.SquashCycles                   781                       # Number of cycles rename is squashing
system.cpu0.rename.IdleCycles                   16566                       # Number of cycles rename is idle
system.cpu0.rename.BlockCycles                   2506                       # Number of cycles rename is blocking
system.cpu0.rename.serializeStallCycles         10426                       # count of cycles rename stalled for serializing inst
system.cpu0.rename.RunCycles                     8849                       # Number of cycles rename is running
system.cpu0.rename.UnblockCycles                12717                       # Number of cycles rename is unblocking
system.cpu0.rename.RenamedInsts                 56519                       # Number of instructions processed by rename
system.cpu0.rename.IQFullEvents                   111                       # Number of times rename has blocked due to IQ full
system.cpu0.rename.LQFullEvents                    89                       # Number of times rename has blocked due to LQ full
system.cpu0.rename.SQFullEvents                 12199                       # Number of times rename has blocked due to SQ full
system.cpu0.rename.RenamedOperands              64806                       # Number of destination operands rename has renamed
system.cpu0.rename.RenameLookups               269545                       # Number of register rename lookups that rename has made
system.cpu0.rename.int_rename_lookups           75184                       # Number of integer rename lookups
system.cpu0.rename.fp_rename_lookups               22                       # Number of floating rename lookups
system.cpu0.rename.CommittedMaps                46013                       # Number of HB maps that are committed
system.cpu0.rename.UndoneMaps                   18793                       # Number of HB maps that are undone due to squashing
system.cpu0.rename.serializingInsts               146                       # count of serializing insts renamed
system.cpu0.rename.tempSerializingInsts           146                       # count of temporary serializing insts renamed
system.cpu0.rename.skidInsts                     3792                       # count of insts added to the skid buffer
system.cpu0.memDep0.insertedLoads                8410                       # Number of loads inserted to the mem dependence unit.
system.cpu0.memDep0.insertedStores               8032                       # Number of stores inserted to the mem dependence unit.
system.cpu0.memDep0.conflictingLoads              638                       # Number of conflicting loads.
system.cpu0.memDep0.conflictingStores             588                       # Number of conflicting stores.
system.cpu0.iq.iqInstsAdded                     52949                       # Number of instructions added to the IQ (excludes non-spec)
system.cpu0.iq.iqNonSpecInstsAdded                286                       # Number of non-speculative instructions added to the IQ
system.cpu0.iq.iqInstsIssued                    47449                       # Number of instructions issued
system.cpu0.iq.iqSquashedInstsIssued               55                       # Number of squashed instructions issued
system.cpu0.iq.iqSquashedInstsExamined          13196                       # Number of squashed instructions iterated over during squash; mainly for profiling
system.cpu0.iq.iqSquashedOperandsExamined        34053                       # Number of squashed operands that are examined and possibly removed from graph
system.cpu0.iq.iqSquashedNonSpecRemoved            83                       # Number of squashed non-spec instructions that were removed
system.cpu0.iq.issued_per_cycle::samples        51845                       # Number of insts issued each cycle
system.cpu0.iq.issued_per_cycle::mean        0.915209                       # Number of insts issued each cycle
system.cpu0.iq.issued_per_cycle::stdev       1.795530                       # Number of insts issued each cycle
system.cpu0.iq.issued_per_cycle::underflows            0      0.00%      0.00% # Number of insts issued each cycle
system.cpu0.iq.issued_per_cycle::0              37015     71.40%     71.40% # Number of insts issued each cycle
system.cpu0.iq.issued_per_cycle::1               3924      7.57%     78.96% # Number of insts issued each cycle
system.cpu0.iq.issued_per_cycle::2               2455      4.74%     83.70% # Number of insts issued each cycle
system.cpu0.iq.issued_per_cycle::3               2625      5.06%     88.76% # Number of insts issued each cycle
system.cpu0.iq.issued_per_cycle::4               2432      4.69%     93.45% # Number of insts issued each cycle
system.cpu0.iq.issued_per_cycle::5               1227      2.37%     95.82% # Number of insts issued each cycle
system.cpu0.iq.issued_per_cycle::6                904      1.74%     97.56% # Number of insts issued each cycle
system.cpu0.iq.issued_per_cycle::7                651      1.26%     98.82% # Number of insts issued each cycle
system.cpu0.iq.issued_per_cycle::8                612      1.18%    100.00% # Number of insts issued each cycle
system.cpu0.iq.issued_per_cycle::overflows            0      0.00%    100.00% # Number of insts issued each cycle
system.cpu0.iq.issued_per_cycle::min_value            0                       # Number of insts issued each cycle
system.cpu0.iq.issued_per_cycle::max_value            8                       # Number of insts issued each cycle
system.cpu0.iq.issued_per_cycle::total          51845                       # Number of insts issued each cycle
system.cpu0.iq.fu_full::No_OpClass                  0      0.00%      0.00% # attempts to use FU when none available
system.cpu0.iq.fu_full::IntAlu                    282     25.90%     25.90% # attempts to use FU when none available
system.cpu0.iq.fu_full::IntMult                   406     37.28%     63.18% # attempts to use FU when none available
system.cpu0.iq.fu_full::IntDiv                      0      0.00%     63.18% # attempts to use FU when none available
system.cpu0.iq.fu_full::FloatAdd                    0      0.00%     63.18% # attempts to use FU when none available
system.cpu0.iq.fu_full::FloatCmp                    0      0.00%     63.18% # attempts to use FU when none available
system.cpu0.iq.fu_full::FloatCvt                    0      0.00%     63.18% # attempts to use FU when none available
system.cpu0.iq.fu_full::FloatMult                   0      0.00%     63.18% # attempts to use FU when none available
system.cpu0.iq.fu_full::FloatDiv                    0      0.00%     63.18% # attempts to use FU when none available
system.cpu0.iq.fu_full::FloatSqrt                   0      0.00%     63.18% # attempts to use FU when none available
system.cpu0.iq.fu_full::SimdAdd                     0      0.00%     63.18% # attempts to use FU when none available
system.cpu0.iq.fu_full::SimdAddAcc                  0      0.00%     63.18% # attempts to use FU when none available
system.cpu0.iq.fu_full::SimdAlu                     0      0.00%     63.18% # attempts to use FU when none available
system.cpu0.iq.fu_full::SimdCmp                     0      0.00%     63.18% # attempts to use FU when none available
system.cpu0.iq.fu_full::SimdCvt                     0      0.00%     63.18% # attempts to use FU when none available
system.cpu0.iq.fu_full::SimdMisc                    0      0.00%     63.18% # attempts to use FU when none available
system.cpu0.iq.fu_full::SimdMult                    0      0.00%     63.18% # attempts to use FU when none available
system.cpu0.iq.fu_full::SimdMultAcc                 0      0.00%     63.18% # attempts to use FU when none available
system.cpu0.iq.fu_full::SimdShift                   0      0.00%     63.18% # attempts to use FU when none available
system.cpu0.iq.fu_full::SimdShiftAcc                0      0.00%     63.18% # attempts to use FU when none available
system.cpu0.iq.fu_full::SimdSqrt                    0      0.00%     63.18% # attempts to use FU when none available
system.cpu0.iq.fu_full::SimdFloatAdd                0      0.00%     63.18% # attempts to use FU when none available
system.cpu0.iq.fu_full::SimdFloatAlu                0      0.00%     63.18% # attempts to use FU when none available
system.cpu0.iq.fu_full::SimdFloatCmp                0      0.00%     63.18% # attempts to use FU when none available
system.cpu0.iq.fu_full::SimdFloatCvt                0      0.00%     63.18% # attempts to use FU when none available
system.cpu0.iq.fu_full::SimdFloatDiv                0      0.00%     63.18% # attempts to use FU when none available
system.cpu0.iq.fu_full::SimdFloatMisc               0      0.00%     63.18% # attempts to use FU when none available
system.cpu0.iq.fu_full::SimdFloatMult               0      0.00%     63.18% # attempts to use FU when none available
system.cpu0.iq.fu_full::SimdFloatMultAcc            0      0.00%     63.18% # attempts to use FU when none available
system.cpu0.iq.fu_full::SimdFloatSqrt               0      0.00%     63.18% # attempts to use FU when none available
system.cpu0.iq.fu_full::MemRead                   182     16.71%     79.89% # attempts to use FU when none available
system.cpu0.iq.fu_full::MemWrite                  219     20.11%    100.00% # attempts to use FU when none available
system.cpu0.iq.fu_full::IprAccess                   0      0.00%    100.00% # attempts to use FU when none available
system.cpu0.iq.fu_full::InstPrefetch                0      0.00%    100.00% # attempts to use FU when none available
system.cpu0.iq.FU_type_0::No_OpClass                0      0.00%      0.00% # Type of FU issued
system.cpu0.iq.FU_type_0::IntAlu                30121     63.48%     63.48% # Type of FU issued
system.cpu0.iq.FU_type_0::IntMult                2132      4.49%     67.97% # Type of FU issued
system.cpu0.iq.FU_type_0::IntDiv                    0      0.00%     67.97% # Type of FU issued
system.cpu0.iq.FU_type_0::FloatAdd                  0      0.00%     67.97% # Type of FU issued
system.cpu0.iq.FU_type_0::FloatCmp                  0      0.00%     67.97% # Type of FU issued
system.cpu0.iq.FU_type_0::FloatCvt                  0      0.00%     67.97% # Type of FU issued
system.cpu0.iq.FU_type_0::FloatMult                 0      0.00%     67.97% # Type of FU issued
system.cpu0.iq.FU_type_0::FloatDiv                  0      0.00%     67.97% # Type of FU issued
system.cpu0.iq.FU_type_0::FloatSqrt                 0      0.00%     67.97% # Type of FU issued
system.cpu0.iq.FU_type_0::SimdAdd                   0      0.00%     67.97% # Type of FU issued
system.cpu0.iq.FU_type_0::SimdAddAcc                0      0.00%     67.97% # Type of FU issued
system.cpu0.iq.FU_type_0::SimdAlu                   0      0.00%     67.97% # Type of FU issued
system.cpu0.iq.FU_type_0::SimdCmp                   0      0.00%     67.97% # Type of FU issued
system.cpu0.iq.FU_type_0::SimdCvt                   0      0.00%     67.97% # Type of FU issued
system.cpu0.iq.FU_type_0::SimdMisc                  0      0.00%     67.97% # Type of FU issued
system.cpu0.iq.FU_type_0::SimdMult                  0      0.00%     67.97% # Type of FU issued
system.cpu0.iq.FU_type_0::SimdMultAcc               0      0.00%     67.97% # Type of FU issued
system.cpu0.iq.FU_type_0::SimdShift                 0      0.00%     67.97% # Type of FU issued
system.cpu0.iq.FU_type_0::SimdShiftAcc              0      0.00%     67.97% # Type of FU issued
system.cpu0.iq.FU_type_0::SimdSqrt                  0      0.00%     67.97% # Type of FU issued
system.cpu0.iq.FU_type_0::SimdFloatAdd              0      0.00%     67.97% # Type of FU issued
system.cpu0.iq.FU_type_0::SimdFloatAlu              0      0.00%     67.97% # Type of FU issued
system.cpu0.iq.FU_type_0::SimdFloatCmp              0      0.00%     67.97% # Type of FU issued
system.cpu0.iq.FU_type_0::SimdFloatCvt              0      0.00%     67.97% # Type of FU issued
system.cpu0.iq.FU_type_0::SimdFloatDiv              0      0.00%     67.97% # Type of FU issued
system.cpu0.iq.FU_type_0::SimdFloatMisc             3      0.01%     67.98% # Type of FU issued
system.cpu0.iq.FU_type_0::SimdFloatMult             0      0.00%     67.98% # Type of FU issued
system.cpu0.iq.FU_type_0::SimdFloatMultAcc            0      0.00%     67.98% # Type of FU issued
system.cpu0.iq.FU_type_0::SimdFloatSqrt             0      0.00%     67.98% # Type of FU issued
system.cpu0.iq.FU_type_0::MemRead                7935     16.72%     84.70% # Type of FU issued
system.cpu0.iq.FU_type_0::MemWrite               7258     15.30%    100.00% # Type of FU issued
system.cpu0.iq.FU_type_0::IprAccess                 0      0.00%    100.00% # Type of FU issued
system.cpu0.iq.FU_type_0::InstPrefetch              0      0.00%    100.00% # Type of FU issued
system.cpu0.iq.FU_type_0::total                 47449                       # Type of FU issued
system.cpu0.iq.rate                          0.507226                       # Inst issue rate
system.cpu0.iq.fu_busy_cnt                       1089                       # FU busy when requested
system.cpu0.iq.fu_busy_rate                  0.022951                       # FU busy rate (busy events/executed inst)
system.cpu0.iq.int_inst_queue_reads            147825                       # Number of integer instruction queue reads
system.cpu0.iq.int_inst_queue_writes            66469                       # Number of integer instruction queue writes
system.cpu0.iq.int_inst_queue_wakeup_accesses        45340                       # Number of integer instruction queue wakeup accesses
system.cpu0.iq.fp_inst_queue_reads                 62                       # Number of floating instruction queue reads
system.cpu0.iq.fp_inst_queue_writes                28                       # Number of floating instruction queue writes
system.cpu0.iq.fp_inst_queue_wakeup_accesses           28                       # Number of floating instruction queue wakeup accesses
system.cpu0.iq.int_alu_accesses                 48504                       # Number of integer alu accesses
system.cpu0.iq.fp_alu_accesses                     34                       # Number of floating point alu accesses
system.cpu0.iew.lsq.thread0.forwLoads             109                       # Number of loads that had data forwarded from stores
system.cpu0.iew.lsq.thread0.invAddrLoads            0                       # Number of loads ignored due to an invalid address
system.cpu0.iew.lsq.thread0.squashedLoads         2701                       # Number of loads squashed
system.cpu0.iew.lsq.thread0.ignoredResponses            3                       # Number of memory responses ignored because the instruction is squashed
system.cpu0.iew.lsq.thread0.memOrderViolation           69                       # Number of memory ordering violations
system.cpu0.iew.lsq.thread0.squashedStores         1330                       # Number of stores squashed
system.cpu0.iew.lsq.thread0.invAddrSwpfs            0                       # Number of software prefetches ignored due to an invalid address
system.cpu0.iew.lsq.thread0.blockedLoads            0                       # Number of blocked loads due to partial load-store forwarding
system.cpu0.iew.lsq.thread0.rescheduledLoads          133                       # Number of loads that were rescheduled
system.cpu0.iew.lsq.thread0.cacheBlocked           59                       # Number of times an access to memory failed due to the cache being blocked
system.cpu0.iew.iewIdleCycles                       0                       # Number of cycles IEW is idle
system.cpu0.iew.iewSquashCycles                   781                       # Number of cycles IEW is squashing
system.cpu0.iew.iewBlockCycles                   2007                       # Number of cycles IEW is blocking
system.cpu0.iew.iewUnblockCycles                  488                       # Number of cycles IEW is unblocking
system.cpu0.iew.iewDispatchedInsts              53242                       # Number of instructions dispatched to IQ
system.cpu0.iew.iewDispSquashedInsts              239                       # Number of squashed instructions skipped by dispatch
system.cpu0.iew.iewDispLoadInsts                 8410                       # Number of dispatched load instructions
system.cpu0.iew.iewDispStoreInsts                8032                       # Number of dispatched store instructions
system.cpu0.iew.iewDispNonSpecInsts               136                       # Number of dispatched non-speculative instructions
system.cpu0.iew.iewIQFullEvents                    13                       # Number of times the IQ has become full, causing a stall
system.cpu0.iew.iewLSQFullEvents                  471                       # Number of times the LSQ has become full, causing a stall
system.cpu0.iew.memOrderViolationEvents            69                       # Number of memory order violations
system.cpu0.iew.predictedTakenIncorrect           198                       # Number of branches that were predicted taken incorrectly
system.cpu0.iew.predictedNotTakenIncorrect          593                       # Number of branches that were predicted not taken incorrectly
system.cpu0.iew.branchMispredicts                 791                       # Number of branch mispredicts detected at execute
system.cpu0.iew.iewExecutedInsts                46447                       # Number of executed instructions
system.cpu0.iew.iewExecLoadInsts                 7576                       # Number of load instructions executed
system.cpu0.iew.iewExecSquashedInsts             1002                       # Number of squashed instructions skipped in execute
system.cpu0.iew.exec_swp                            0                       # number of swp insts executed
system.cpu0.iew.exec_nop                            7                       # number of nop insts executed
system.cpu0.iew.exec_refs                       14683                       # number of memory reference insts executed
system.cpu0.iew.exec_branches                    6145                       # Number of branches executed
system.cpu0.iew.exec_stores                      7107                       # Number of stores executed
system.cpu0.iew.exec_rate                    0.496515                       # Inst execution rate
system.cpu0.iew.wb_sent                         45615                       # cumulative count of insts sent to commit
system.cpu0.iew.wb_count                        45368                       # cumulative count of insts written-back
system.cpu0.iew.wb_producers                    26693                       # num instructions producing a value
system.cpu0.iew.wb_consumers                    55689                       # num instructions consuming a value
system.cpu0.iew.wb_penalized                        0                       # number of instrctions required to write to 'other' IQ
system.cpu0.iew.wb_rate                      0.484981                       # insts written-back per cycle
system.cpu0.iew.wb_fanout                    0.479323                       # average fanout of values written-back
system.cpu0.iew.wb_penalized_rate                   0                       # fraction of instructions written-back that wrote to 'other' IQ
system.cpu0.commit.commitSquashedInsts          13206                       # The number of squashed insts skipped by commit
system.cpu0.commit.commitNonSpecStalls            203                       # The number of times commit has been forced to stall to communicate backwards
system.cpu0.commit.branchMispredicts              710                       # The number of times a branch was mispredicted
system.cpu0.commit.committed_per_cycle::samples        49776                       # Number of insts commited each cycle
system.cpu0.commit.committed_per_cycle::mean     0.804384                       # Number of insts commited each cycle
system.cpu0.commit.committed_per_cycle::stdev     1.877656                       # Number of insts commited each cycle
system.cpu0.commit.committed_per_cycle::underflows            0      0.00%      0.00% # Number of insts commited each cycle
system.cpu0.commit.committed_per_cycle::0        37964     76.27%     76.27% # Number of insts commited each cycle
system.cpu0.commit.committed_per_cycle::1         3956      7.95%     84.22% # Number of insts commited each cycle
system.cpu0.commit.committed_per_cycle::2         2147      4.31%     88.53% # Number of insts commited each cycle
system.cpu0.commit.committed_per_cycle::3          656      1.32%     89.85% # Number of insts commited each cycle
system.cpu0.commit.committed_per_cycle::4         1353      2.72%     92.57% # Number of insts commited each cycle
system.cpu0.commit.committed_per_cycle::5         1248      2.51%     95.07% # Number of insts commited each cycle
system.cpu0.commit.committed_per_cycle::6          587      1.18%     96.25% # Number of insts commited each cycle
system.cpu0.commit.committed_per_cycle::7          273      0.55%     96.80% # Number of insts commited each cycle
system.cpu0.commit.committed_per_cycle::8         1592      3.20%    100.00% # Number of insts commited each cycle
system.cpu0.commit.committed_per_cycle::overflows            0      0.00%    100.00% # Number of insts commited each cycle
system.cpu0.commit.committed_per_cycle::min_value            0                       # Number of insts commited each cycle
system.cpu0.commit.committed_per_cycle::max_value            8                       # Number of insts commited each cycle
system.cpu0.commit.committed_per_cycle::total        49776                       # Number of insts commited each cycle
system.cpu0.commit.committedInsts               34395                       # Number of instructions committed
system.cpu0.commit.committedOps                 40039                       # Number of ops (including micro ops) committed
[...]
system.l2.ReadExReq_avg_mshr_miss_latency::cpu7.data 148437.500000                       # average ReadExReq mshr miss latency
system.l2.ReadExReq_avg_mshr_miss_latency::total 72040.613718                       # average ReadExReq mshr miss latency
system.l2.demand_avg_mshr_miss_latency::cpu0.inst 66349.800399                       # average overall mshr miss latency
system.l2.demand_avg_mshr_miss_latency::cpu0.data 67716.160221                       # average overall mshr miss latency
system.l2.demand_avg_mshr_miss_latency::cpu1.inst 72522.727273                       # average overall mshr miss latency
system.l2.demand_avg_mshr_miss_latency::cpu1.data       137250                       # average overall mshr miss latency
system.l2.demand_avg_mshr_miss_latency::cpu2.inst 76390.625000                       # average overall mshr miss latency
system.l2.demand_avg_mshr_miss_latency::cpu2.data        82700                       # average overall mshr miss latency
system.l2.demand_avg_mshr_miss_latency::cpu3.inst        56750                       # average overall mshr miss latency
system.l2.demand_avg_mshr_miss_latency::cpu3.data        98000                       # average overall mshr miss latency
system.l2.demand_avg_mshr_miss_latency::cpu4.inst 58166.666667                       # average overall mshr miss latency
system.l2.demand_avg_mshr_miss_latency::cpu4.data       124500                       # average overall mshr miss latency
system.l2.demand_avg_mshr_miss_latency::cpu5.data 137437.500000                       # average overall mshr miss latency
system.l2.demand_avg_mshr_miss_latency::cpu6.inst        56250                       # average overall mshr miss latency
system.l2.demand_avg_mshr_miss_latency::cpu6.data 137312.500000                       # average overall mshr miss latency
system.l2.demand_avg_mshr_miss_latency::cpu7.inst        63875                       # average overall mshr miss latency
system.l2.demand_avg_mshr_miss_latency::cpu7.data 148437.500000                       # average overall mshr miss latency
system.l2.demand_avg_mshr_miss_latency::total 68919.719828                       # average overall mshr miss latency
system.l2.overall_avg_mshr_miss_latency::cpu0.inst 66349.800399                       # average overall mshr miss latency
system.l2.overall_avg_mshr_miss_latency::cpu0.data 67716.160221                       # average overall mshr miss latency
system.l2.overall_avg_mshr_miss_latency::cpu1.inst 72522.727273                       # average overall mshr miss latency
system.l2.overall_avg_mshr_miss_latency::cpu1.data       137250                       # average overall mshr miss latency
system.l2.overall_avg_mshr_miss_latency::cpu2.inst 76390.625000                       # average overall mshr miss latency
system.l2.overall_avg_mshr_miss_latency::cpu2.data        82700                       # average overall mshr miss latency
system.l2.overall_avg_mshr_miss_latency::cpu3.inst        56750                       # average overall mshr miss latency
system.l2.overall_avg_mshr_miss_latency::cpu3.data        98000                       # average overall mshr miss latency
system.l2.overall_avg_mshr_miss_latency::cpu4.inst 58166.666667                       # average overall mshr miss latency
system.l2.overall_avg_mshr_miss_latency::cpu4.data       124500                       # average overall mshr miss latency
system.l2.overall_avg_mshr_miss_latency::cpu5.data 137437.500000                       # average overall mshr miss latency
system.l2.overall_avg_mshr_miss_latency::cpu6.inst        56250                       # average overall mshr miss latency
system.l2.overall_avg_mshr_miss_latency::cpu6.data 137312.500000                       # average overall mshr miss latency
system.l2.overall_avg_mshr_miss_latency::cpu7.inst        63875                       # average overall mshr miss latency
system.l2.overall_avg_mshr_miss_latency::cpu7.data 148437.500000                       # average overall mshr miss latency
system.l2.overall_avg_mshr_miss_latency::total 68919.719828                       # average overall mshr miss latency
system.l2.no_allocate_misses                        0                       # Number of misses that were no-allocate
system.membus.trans_dist::ReadReq                 650                       # Transaction distribution
system.membus.trans_dist::ReadResp                649                       # Transaction distribution
system.membus.trans_dist::UpgradeReq               24                       # Transaction distribution
system.membus.trans_dist::SCUpgradeReq             24                       # Transaction distribution
system.membus.trans_dist::UpgradeResp              18                       # Transaction distribution
system.membus.trans_dist::ReadExReq               277                       # Transaction distribution
system.membus.trans_dist::ReadExResp              277                       # Transaction distribution
system.membus.pkt_count_system.l2.mem_side::system.mem_ctrls.port         1919                       # Packet count per connected master and slave (bytes)
system.membus.pkt_count::total                   1919                       # Packet count per connected master and slave (bytes)
system.membus.pkt_size_system.l2.mem_side::system.mem_ctrls.port        59264                       # Cumulative packet size per connected master and slave (bytes)
system.membus.pkt_size::total                   59264                       # Cumulative packet size per connected master and slave (bytes)
system.membus.snoops                               30                       # Total snoops (count)
system.membus.snoop_fanout::samples               975                       # Request fanout histogram
system.membus.snoop_fanout::mean                    0                       # Request fanout histogram
system.membus.snoop_fanout::stdev                   0                       # Request fanout histogram
system.membus.snoop_fanout::underflows              0      0.00%      0.00% # Request fanout histogram
system.membus.snoop_fanout::0                     975    100.00%    100.00% # Request fanout histogram
system.membus.snoop_fanout::1                       0      0.00%    100.00% # Request fanout histogram
system.membus.snoop_fanout::overflows               0      0.00%    100.00% # Request fanout histogram
system.membus.snoop_fanout::min_value               0                       # Request fanout histogram
system.membus.snoop_fanout::max_value               0                       # Request fanout histogram
system.membus.snoop_fanout::total                 975                       # Request fanout histogram
system.membus.reqLayer0.occupancy             1156000                       # Layer occupancy (ticks)
system.membus.reqLayer0.utilization               2.5                       # Layer utilization (%)
system.membus.respLayer1.occupancy            4941982                       # Layer occupancy (ticks)
system.membus.respLayer1.utilization             10.6                       # Layer utilization (%)
system.tol2bus.trans_dist::ReadReq               1748                       # Transaction distribution
system.tol2bus.trans_dist::ReadResp              1746                       # Transaction distribution
system.tol2bus.trans_dist::Writeback               16                       # Transaction distribution
system.tol2bus.trans_dist::UpgradeReq              27                       # Transaction distribution
system.tol2bus.trans_dist::SCUpgradeReq            24                       # Transaction distribution
system.tol2bus.trans_dist::UpgradeResp             51                       # Transaction distribution
system.tol2bus.trans_dist::SCUpgradeFailReq            4                       # Transaction distribution
system.tol2bus.trans_dist::UpgradeFailResp            4                       # Transaction distribution
system.tol2bus.trans_dist::ReadExReq              329                       # Transaction distribution
system.tol2bus.trans_dist::ReadExResp             329                       # Transaction distribution
system.tol2bus.pkt_count_system.cpu0.icache.mem_side::system.l2.cpu_side         1206                       # Packet count per connected master and slave (bytes)
system.tol2bus.pkt_count_system.cpu0.dcache.mem_side::system.l2.cpu_side          899                       # Packet count per connected master and slave (bytes)
system.tol2bus.pkt_count_system.cpu1.icache.mem_side::system.l2.cpu_side          114                       # Packet count per connected master and slave (bytes)
system.tol2bus.pkt_count_system.cpu1.dcache.mem_side::system.l2.cpu_side          119                       # Packet count per connected master and slave (bytes)
system.tol2bus.pkt_count_system.cpu2.icache.mem_side::system.l2.cpu_side          108                       # Packet count per connected master and slave (bytes)
system.tol2bus.pkt_count_system.cpu2.dcache.mem_side::system.l2.cpu_side          117                       # Packet count per connected master and slave (bytes)
system.tol2bus.pkt_count_system.cpu3.icache.mem_side::system.l2.cpu_side          108                       # Packet count per connected master and slave (bytes)
system.tol2bus.pkt_count_system.cpu3.dcache.mem_side::system.l2.cpu_side          123                       # Packet count per connected master and slave (bytes)
system.tol2bus.pkt_count_system.cpu4.icache.mem_side::system.l2.cpu_side          112                       # Packet count per connected master and slave (bytes)
system.tol2bus.pkt_count_system.cpu4.dcache.mem_side::system.l2.cpu_side          120                       # Packet count per connected master and slave (bytes)
system.tol2bus.pkt_count_system.cpu5.icache.mem_side::system.l2.cpu_side          112                       # Packet count per connected master and slave (bytes)
system.tol2bus.pkt_count_system.cpu5.dcache.mem_side::system.l2.cpu_side          115                       # Packet count per connected master and slave (bytes)
system.tol2bus.pkt_count_system.cpu6.icache.mem_side::system.l2.cpu_side          110                       # Packet count per connected master and slave (bytes)
system.tol2bus.pkt_count_system.cpu6.dcache.mem_side::system.l2.cpu_side          109                       # Packet count per connected master and slave (bytes)
system.tol2bus.pkt_count_system.cpu7.icache.mem_side::system.l2.cpu_side          102                       # Packet count per connected master and slave (bytes)
system.tol2bus.pkt_count_system.cpu7.dcache.mem_side::system.l2.cpu_side          111                       # Packet count per connected master and slave (bytes)
system.tol2bus.pkt_count::total                  3685                       # Packet count per connected master and slave (bytes)
system.tol2bus.pkt_size_system.cpu0.icache.mem_side::system.l2.cpu_side        38528                       # Cumulative packet size per connected master and slave (bytes)
system.tol2bus.pkt_size_system.cpu0.dcache.mem_side::system.l2.cpu_side        27712                       # Cumulative packet size per connected master and slave (bytes)
system.tol2bus.pkt_size_system.cpu1.icache.mem_side::system.l2.cpu_side         3648                       # Cumulative packet size per connected master and slave (bytes)
system.tol2bus.pkt_size_system.cpu1.dcache.mem_side::system.l2.cpu_side          960                       # Cumulative packet size per connected master and slave (bytes)
system.tol2bus.pkt_size_system.cpu2.icache.mem_side::system.l2.cpu_side         3456                       # Cumulative packet size per connected master and slave (bytes)
system.tol2bus.pkt_size_system.cpu2.dcache.mem_side::system.l2.cpu_side         1088                       # Cumulative packet size per connected master and slave (bytes)
system.tol2bus.pkt_size_system.cpu3.icache.mem_side::system.l2.cpu_side         3456                       # Cumulative packet size per connected master and slave (bytes)
system.tol2bus.pkt_size_system.cpu3.dcache.mem_side::system.l2.cpu_side         1024                       # Cumulative packet size per connected master and slave (bytes)
system.tol2bus.pkt_size_system.cpu4.icache.mem_side::system.l2.cpu_side         3584                       # Cumulative packet size per connected master and slave (bytes)
system.tol2bus.pkt_size_system.cpu4.dcache.mem_side::system.l2.cpu_side         1088                       # Cumulative packet size per connected master and slave (bytes)
system.tol2bus.pkt_size_system.cpu5.icache.mem_side::system.l2.cpu_side         3584                       # Cumulative packet size per connected master and slave (bytes)
system.tol2bus.pkt_size_system.cpu5.dcache.mem_side::system.l2.cpu_side         1024                       # Cumulative packet size per connected master and slave (bytes)
system.tol2bus.pkt_size_system.cpu6.icache.mem_side::system.l2.cpu_side         3520                       # Cumulative packet size per connected master and slave (bytes)
system.tol2bus.pkt_size_system.cpu6.dcache.mem_side::system.l2.cpu_side         1024                       # Cumulative packet size per connected master and slave (bytes)
system.tol2bus.pkt_size_system.cpu7.icache.mem_side::system.l2.cpu_side         3264                       # Cumulative packet size per connected master and slave (bytes)
system.tol2bus.pkt_size_system.cpu7.dcache.mem_side::system.l2.cpu_side         1088                       # Cumulative packet size per connected master and slave (bytes)
system.tol2bus.pkt_size::total                  98048                       # Cumulative packet size per connected master and slave (bytes)
system.tol2bus.snoops                             593                       # Total snoops (count)
system.tol2bus.snoop_fanout::samples             2149                       # Request fanout histogram
system.tol2bus.snoop_fanout::mean                  15                       # Request fanout histogram
system.tol2bus.snoop_fanout::stdev                  0                       # Request fanout histogram
system.tol2bus.snoop_fanout::underflows             0      0.00%      0.00% # Request fanout histogram
system.tol2bus.snoop_fanout::0                      0      0.00%      0.00% # Request fanout histogram
system.tol2bus.snoop_fanout::1                      0      0.00%      0.00% # Request fanout histogram
system.tol2bus.snoop_fanout::2                      0      0.00%      0.00% # Request fanout histogram
system.tol2bus.snoop_fanout::3                      0      0.00%      0.00% # Request fanout histogram
system.tol2bus.snoop_fanout::4                      0      0.00%      0.00% # Request fanout histogram
system.tol2bus.snoop_fanout::5                      0      0.00%      0.00% # Request fanout histogram
system.tol2bus.snoop_fanout::6                      0      0.00%      0.00% # Request fanout histogram
system.tol2bus.snoop_fanout::7                      0      0.00%      0.00% # Request fanout histogram
system.tol2bus.snoop_fanout::8                      0      0.00%      0.00% # Request fanout histogram
system.tol2bus.snoop_fanout::9                      0      0.00%      0.00% # Request fanout histogram
system.tol2bus.snoop_fanout::10                     0      0.00%      0.00% # Request fanout histogram
system.tol2bus.snoop_fanout::11                     0      0.00%      0.00% # Request fanout histogram
system.tol2bus.snoop_fanout::12                     0      0.00%      0.00% # Request fanout histogram
system.tol2bus.snoop_fanout::13                     0      0.00%      0.00% # Request fanout histogram
system.tol2bus.snoop_fanout::14                     0      0.00%      0.00% # Request fanout histogram
system.tol2bus.snoop_fanout::15                  2149    100.00%    100.00% # Request fanout histogram
system.tol2bus.snoop_fanout::16                     0      0.00%    100.00% # Request fanout histogram
system.tol2bus.snoop_fanout::overflows              0      0.00%    100.00% # Request fanout histogram
system.tol2bus.snoop_fanout::min_value             15                       # Request fanout histogram
system.tol2bus.snoop_fanout::max_value             15                       # Request fanout histogram
system.tol2bus.snoop_fanout::total               2149                       # Request fanout histogram
system.tol2bus.reqLayer0.occupancy            1091747                       # Layer occupancy (ticks)
system.tol2bus.reqLayer0.utilization              2.3                       # Layer utilization (%)
system.tol2bus.respLayer0.occupancy            999476                       # Layer occupancy (ticks)
system.tol2bus.respLayer0.utilization             2.1                       # Layer utilization (%)
system.tol2bus.respLayer1.occupancy            718491                       # Layer occupancy (ticks)
system.tol2bus.respLayer1.utilization             1.5                       # Layer utilization (%)
system.tol2bus.respLayer4.occupancy             96705                       # Layer occupancy (ticks)
system.tol2bus.respLayer4.utilization             0.2                       # Layer utilization (%)
system.tol2bus.respLayer5.occupancy            164959                       # Layer occupancy (ticks)
system.tol2bus.respLayer5.utilization             0.4                       # Layer utilization (%)
system.tol2bus.respLayer8.occupancy             86731                       # Layer occupancy (ticks)
system.tol2bus.respLayer8.utilization             0.2                       # Layer utilization (%)
system.tol2bus.respLayer9.occupancy            154227                       # Layer occupancy (ticks)
system.tol2bus.respLayer9.utilization             0.3                       # Layer utilization (%)
system.tol2bus.respLayer12.occupancy            89951                       # Layer occupancy (ticks)
system.tol2bus.respLayer12.utilization            0.2                       # Layer utilization (%)
system.tol2bus.respLayer13.occupancy           169187                       # Layer occupancy (ticks)
system.tol2bus.respLayer13.utilization            0.4                       # Layer utilization (%)
system.tol2bus.respLayer16.occupancy            88959                       # Layer occupancy (ticks)
system.tol2bus.respLayer16.utilization            0.2                       # Layer utilization (%)
system.tol2bus.respLayer17.occupancy           159938                       # Layer occupancy (ticks)
system.tol2bus.respLayer17.utilization            0.3                       # Layer utilization (%)
system.tol2bus.respLayer20.occupancy            87707                       # Layer occupancy (ticks)
system.tol2bus.respLayer20.utilization            0.2                       # Layer utilization (%)
system.tol2bus.respLayer21.occupancy           149473                       # Layer occupancy (ticks)
system.tol2bus.respLayer21.utilization            0.3                       # Layer utilization (%)
system.tol2bus.respLayer24.occupancy            85467                       # Layer occupancy (ticks)
system.tol2bus.respLayer24.utilization            0.2                       # Layer utilization (%)
system.tol2bus.respLayer25.occupancy           137245                       # Layer occupancy (ticks)
system.tol2bus.respLayer25.utilization            0.3                       # Layer utilization (%)
system.tol2bus.respLayer28.occupancy            78232                       # Layer occupancy (ticks)
system.tol2bus.respLayer28.utilization            0.2                       # Layer utilization (%)
system.tol2bus.respLayer29.occupancy           137990                       # Layer occupancy (ticks)
system.tol2bus.respLayer29.utilization            0.3                       # Layer utilization (%)

---------- End Simulation Statistics   ----------
