
---------- Begin Simulation Statistics ----------
sim_seconds                                  0.001421                       # Number of seconds simulated
sim_ticks                                  1420791500                       # Number of ticks simulated
final_tick                                 1420791500                       # Number of ticks from beginning of simulation (restored from checkpoints and never reset)
sim_freq                                 1000000000000                       # Frequency of simulated ticks
host_inst_rate                                 125116                       # Simulator instruction rate (inst/s)
host_op_rate                                   125757                       # Simulator op (including micro ops) rate (op/s)
host_tick_rate                                4807922                       # Simulator tick rate (ticks/s)
host_mem_usage                                 736548                       # Number of bytes of host memory used
host_seconds                                   295.51                       # Real time elapsed on the host
sim_insts                                    36972971                       # Number of instructions simulated
sim_ops                                      37162389                       # Number of ops (including micro ops) simulated
system.voltage_domain.voltage                       1                       # Voltage in Volts
system.clk_domain.clock                          1000                       # Clock period in ticks
system.mem_ctrls.bytes_read::cpu00.inst         33984                       # Number of bytes read from this memory
system.mem_ctrls.bytes_read::cpu00.data         25664                       # Number of bytes read from this memory
system.mem_ctrls.bytes_read::cpu01.inst           768                       # Number of bytes read from this memory
system.mem_ctrls.bytes_read::cpu01.data          8512                       # Number of bytes read from this memory
system.mem_ctrls.bytes_read::cpu02.inst           960                       # Number of bytes read from this memory
system.mem_ctrls.bytes_read::cpu02.data          8640                       # Number of bytes read from this memory
system.mem_ctrls.bytes_read::cpu03.data          8512                       # Number of bytes read from this memory
system.mem_ctrls.bytes_read::cpu04.inst            64                       # Number of bytes read from this memory
system.mem_ctrls.bytes_read::cpu04.data          8448                       # Number of bytes read from this memory
system.mem_ctrls.bytes_read::cpu05.data          8448                       # Number of bytes read from this memory
system.mem_ctrls.bytes_read::cpu06.data          8448                       # Number of bytes read from this memory
system.mem_ctrls.bytes_read::cpu07.data          8512                       # Number of bytes read from this memory
system.mem_ctrls.bytes_read::cpu08.data          8512                       # Number of bytes read from this memory
system.mem_ctrls.bytes_read::cpu09.inst           448                       # Number of bytes read from this memory
system.mem_ctrls.bytes_read::cpu09.data          8448                       # Number of bytes read from this memory
system.mem_ctrls.bytes_read::cpu10.data          8448                       # Number of bytes read from this memory
system.mem_ctrls.bytes_read::cpu11.data          8512                       # Number of bytes read from this memory
system.mem_ctrls.bytes_read::cpu12.data          8448                       # Number of bytes read from this memory
system.mem_ctrls.bytes_read::cpu13.inst            64                       # Number of bytes read from this memory
system.mem_ctrls.bytes_read::cpu13.data          8448                       # Number of bytes read from this memory
system.mem_ctrls.bytes_read::cpu14.data          8448                       # Number of bytes read from this memory
system.mem_ctrls.bytes_read::cpu15.inst           128                       # Number of bytes read from this memory
system.mem_ctrls.bytes_read::cpu15.data          8640                       # Number of bytes read from this memory
system.mem_ctrls.bytes_read::l2.prefetcher       266496                       # Number of bytes read from this memory
system.mem_ctrls.bytes_read::total             456000                       # Number of bytes read from this memory
system.mem_ctrls.bytes_inst_read::cpu00.inst        33984                       # Number of instructions bytes read from this memory
system.mem_ctrls.bytes_inst_read::cpu01.inst          768                       # Number of instructions bytes read from this memory
system.mem_ctrls.bytes_inst_read::cpu02.inst          960                       # Number of instructions bytes read from this memory
system.mem_ctrls.bytes_inst_read::cpu04.inst           64                       # Number of instructions bytes read from this memory
system.mem_ctrls.bytes_inst_read::cpu09.inst          448                       # Number of instructions bytes read from this memory
system.mem_ctrls.bytes_inst_read::cpu13.inst           64                       # Number of instructions bytes read from this memory
system.mem_ctrls.bytes_inst_read::cpu15.inst          128                       # Number of instructions bytes read from this memory
system.mem_ctrls.bytes_inst_read::total         36416                       # Number of instructions bytes read from this memory
system.mem_ctrls.bytes_written::writebacks         1088                       # Number of bytes written to this memory
system.mem_ctrls.bytes_written::total            1088                       # Number of bytes written to this memory
system.mem_ctrls.num_reads::cpu00.inst            531                       # Number of read requests responded to by this memory
system.mem_ctrls.num_reads::cpu00.data            401                       # Number of read requests responded to by this memory
system.mem_ctrls.num_reads::cpu01.inst             12                       # Number of read requests responded to by this memory
system.mem_ctrls.num_reads::cpu01.data            133                       # Number of read requests responded to by this memory
system.mem_ctrls.num_reads::cpu02.inst             15                       # Number of read requests responded to by this memory
system.mem_ctrls.num_reads::cpu02.data            135                       # Number of read requests responded to by this memory
system.mem_ctrls.num_reads::cpu03.data            133                       # Number of read requests responded to by this memory
system.mem_ctrls.num_reads::cpu04.inst              1                       # Number of read requests responded to by this memory
system.mem_ctrls.num_reads::cpu04.data            132                       # Number of read requests responded to by this memory
system.mem_ctrls.num_reads::cpu05.data            132                       # Number of read requests responded to by this memory
system.mem_ctrls.num_reads::cpu06.data            132                       # Number of read requests responded to by this memory
system.mem_ctrls.num_reads::cpu07.data            133                       # Number of read requests responded to by this memory
system.mem_ctrls.num_reads::cpu08.data            133                       # Number of read requests responded to by this memory
system.mem_ctrls.num_reads::cpu09.inst              7                       # Number of read requests responded to by this memory
system.mem_ctrls.num_reads::cpu09.data            132                       # Number of read requests responded to by this memory
system.mem_ctrls.num_reads::cpu10.data            132                       # Number of read requests responded to by this memory
system.mem_ctrls.num_reads::cpu11.data            133                       # Number of read requests responded to by this memory
system.mem_ctrls.num_reads::cpu12.data            132                       # Number of read requests responded to by this memory
system.mem_ctrls.num_reads::cpu13.inst              1                       # Number of read requests responded to by this memory
system.mem_ctrls.num_reads::cpu13.data            132                       # Number of read requests responded to by this memory
system.mem_ctrls.num_reads::cpu14.data            132                       # Number of read requests responded to by this memory
system.mem_ctrls.num_reads::cpu15.inst              2                       # Number of read requests responded to by this memory
system.mem_ctrls.num_reads::cpu15.data            135                       # Number of read requests responded to by this memory
system.mem_ctrls.num_reads::l2.prefetcher         4164                       # Number of read requests responded to by this memory
system.mem_ctrls.num_reads::total                7125                       # Number of read requests responded to by this memory
system.mem_ctrls.num_writes::writebacks            17                       # Number of write requests responded to by this memory
system.mem_ctrls.num_writes::total                 17                       # Number of write requests responded to by this memory
system.mem_ctrls.bw_read::cpu00.inst         23919062                       # Total read bandwidth from this memory (bytes/s)
system.mem_ctrls.bw_read::cpu00.data         18063171                       # Total read bandwidth from this memory (bytes/s)
system.mem_ctrls.bw_read::cpu01.inst           540544                       # Total read bandwidth from this memory (bytes/s)
system.mem_ctrls.bw_read::cpu01.data          5991027                       # Total read bandwidth from this memory (bytes/s)
system.mem_ctrls.bw_read::cpu02.inst           675680                       # Total read bandwidth from this memory (bytes/s)
system.mem_ctrls.bw_read::cpu02.data          6081117                       # Total read bandwidth from this memory (bytes/s)
system.mem_ctrls.bw_read::cpu03.data          5991027                       # Total read bandwidth from this memory (bytes/s)
system.mem_ctrls.bw_read::cpu04.inst            45045                       # Total read bandwidth from this memory (bytes/s)
system.mem_ctrls.bw_read::cpu04.data          5945982                       # Total read bandwidth from this memory (bytes/s)
system.mem_ctrls.bw_read::cpu05.data          5945982                       # Total read bandwidth from this memory (bytes/s)
system.mem_ctrls.bw_read::cpu06.data          5945982                       # Total read bandwidth from this memory (bytes/s)
system.mem_ctrls.bw_read::cpu07.data          5991027                       # Total read bandwidth from this memory (bytes/s)
system.mem_ctrls.bw_read::cpu08.data          5991027                       # Total read bandwidth from this memory (bytes/s)
system.mem_ctrls.bw_read::cpu09.inst           315317                       # Total read bandwidth from this memory (bytes/s)
system.mem_ctrls.bw_read::cpu09.data          5945982                       # Total read bandwidth from this memory (bytes/s)
system.mem_ctrls.bw_read::cpu10.data          5945982                       # Total read bandwidth from this memory (bytes/s)
system.mem_ctrls.bw_read::cpu11.data          5991027                       # Total read bandwidth from this memory (bytes/s)
system.mem_ctrls.bw_read::cpu12.data          5945982                       # Total read bandwidth from this memory (bytes/s)
system.mem_ctrls.bw_read::cpu13.inst            45045                       # Total read bandwidth from this memory (bytes/s)
system.mem_ctrls.bw_read::cpu13.data          5945982                       # Total read bandwidth from this memory (bytes/s)
system.mem_ctrls.bw_read::cpu14.data          5945982                       # Total read bandwidth from this memory (bytes/s)
system.mem_ctrls.bw_read::cpu15.inst            90091                       # Total read bandwidth from this memory (bytes/s)
system.mem_ctrls.bw_read::cpu15.data          6081117                       # Total read bandwidth from this memory (bytes/s)
system.mem_ctrls.bw_read::l2.prefetcher     187568690                       # Total read bandwidth from this memory (bytes/s)
system.mem_ctrls.bw_read::total             320947866                       # Total read bandwidth from this memory (bytes/s)
system.mem_ctrls.bw_inst_read::cpu00.inst     23919062                       # Instruction read bandwidth from this memory (bytes/s)
system.mem_ctrls.bw_inst_read::cpu01.inst       540544                       # Instruction read bandwidth from this memory (bytes/s)
system.mem_ctrls.bw_inst_read::cpu02.inst       675680                       # Instruction read bandwidth from this memory (bytes/s)
system.mem_ctrls.bw_inst_read::cpu04.inst        45045                       # Instruction read bandwidth from this memory (bytes/s)
system.mem_ctrls.bw_inst_read::cpu09.inst       315317                       # Instruction read bandwidth from this memory (bytes/s)
system.mem_ctrls.bw_inst_read::cpu13.inst        45045                       # Instruction read bandwidth from this memory (bytes/s)
system.mem_ctrls.bw_inst_read::cpu15.inst        90091                       # Instruction read bandwidth from this memory (bytes/s)
system.mem_ctrls.bw_inst_read::total         25630784                       # Instruction read bandwidth from this memory (bytes/s)
system.mem_ctrls.bw_write::writebacks          765770                       # Write bandwidth from this memory (bytes/s)
system.mem_ctrls.bw_write::total               765770                       # Write bandwidth from this memory (bytes/s)
system.mem_ctrls.bw_total::writebacks          765770                       # Total bandwidth to/from this memory (bytes/s)
system.mem_ctrls.bw_total::cpu00.inst        23919062                       # Total bandwidth to/from this memory (bytes/s)
system.mem_ctrls.bw_total::cpu00.data        18063171                       # Total bandwidth to/from this memory (bytes/s)
system.mem_ctrls.bw_total::cpu01.inst          540544                       # Total bandwidth to/from this memory (bytes/s)
system.mem_ctrls.bw_total::cpu01.data         5991027                       # Total bandwidth to/from this memory (bytes/s)
system.mem_ctrls.bw_total::cpu02.inst          675680                       # Total bandwidth to/from this memory (bytes/s)
system.mem_ctrls.bw_total::cpu02.data         6081117                       # Total bandwidth to/from this memory (bytes/s)
system.mem_ctrls.bw_total::cpu03.data         5991027                       # Total bandwidth to/from this memory (bytes/s)
system.mem_ctrls.bw_total::cpu04.inst           45045                       # Total bandwidth to/from this memory (bytes/s)
system.mem_ctrls.bw_total::cpu04.data         5945982                       # Total bandwidth to/from this memory (bytes/s)
system.mem_ctrls.bw_total::cpu05.data         5945982                       # Total bandwidth to/from this memory (bytes/s)
system.mem_ctrls.bw_total::cpu06.data         5945982                       # Total bandwidth to/from this memory (bytes/s)
system.mem_ctrls.bw_total::cpu07.data         5991027                       # Total bandwidth to/from this memory (bytes/s)
system.mem_ctrls.bw_total::cpu08.data         5991027                       # Total bandwidth to/from this memory (bytes/s)
system.mem_ctrls.bw_total::cpu09.inst          315317                       # Total bandwidth to/from this memory (bytes/s)
system.mem_ctrls.bw_total::cpu09.data         5945982                       # Total bandwidth to/from this memory (bytes/s)
system.mem_ctrls.bw_total::cpu10.data         5945982                       # Total bandwidth to/from this memory (bytes/s)
system.mem_ctrls.bw_total::cpu11.data         5991027                       # Total bandwidth to/from this memory (bytes/s)
system.mem_ctrls.bw_total::cpu12.data         5945982                       # Total bandwidth to/from this memory (bytes/s)
system.mem_ctrls.bw_total::cpu13.inst           45045                       # Total bandwidth to/from this memory (bytes/s)
system.mem_ctrls.bw_total::cpu13.data         5945982                       # Total bandwidth to/from this memory (bytes/s)
system.mem_ctrls.bw_total::cpu14.data         5945982                       # Total bandwidth to/from this memory (bytes/s)
system.mem_ctrls.bw_total::cpu15.inst           90091                       # Total bandwidth to/from this memory (bytes/s)
system.mem_ctrls.bw_total::cpu15.data         6081117                       # Total bandwidth to/from this memory (bytes/s)
system.mem_ctrls.bw_total::l2.prefetcher    187568690                       # Total bandwidth to/from this memory (bytes/s)
system.mem_ctrls.bw_total::total            321713636                       # Total bandwidth to/from this memory (bytes/s)
system.mem_ctrls.readReqs                        7125                       # Number of read requests accepted
system.mem_ctrls.writeReqs                         17                       # Number of write requests accepted
system.mem_ctrls.readBursts                      7125                       # Number of DRAM read bursts, including those serviced by the write queue
system.mem_ctrls.writeBursts                       17                       # Number of DRAM write bursts, including those merged in the write queue
system.mem_ctrls.bytesReadDRAM                 455488                       # Total number of bytes read from DRAM
system.mem_ctrls.bytesReadWrQ                     512                       # Total number of bytes read from write queue
system.mem_ctrls.bytesWritten                       0                       # Total number of bytes written to DRAM
system.mem_ctrls.bytesReadSys                  456000                       # Total read bytes from the system interface side
system.mem_ctrls.bytesWrittenSys                 1088                       # Total written bytes from the system interface side
system.mem_ctrls.servicedByWrQ                      8                       # Number of DRAM read bursts serviced by the write queue
system.mem_ctrls.mergedWrBursts                     0                       # Number of DRAM write bursts merged with an existing one
system.mem_ctrls.neitherReadNorWriteReqs            8                       # Number of requests that are neither read nor write
system.mem_ctrls.perBankRdBursts::0               516                       # Per bank write bursts
system.mem_ctrls.perBankRdBursts::1               518                       # Per bank write bursts
system.mem_ctrls.perBankRdBursts::2               523                       # Per bank write bursts
system.mem_ctrls.perBankRdBursts::3               491                       # Per bank write bursts
system.mem_ctrls.perBankRdBursts::4               434                       # Per bank write bursts
system.mem_ctrls.perBankRdBursts::5               495                       # Per bank write bursts
system.mem_ctrls.perBankRdBursts::6               483                       # Per bank write bursts
system.mem_ctrls.perBankRdBursts::7               413                       # Per bank write bursts
system.mem_ctrls.perBankRdBursts::8               400                       # Per bank write bursts
system.mem_ctrls.perBankRdBursts::9               392                       # Per bank write bursts
system.mem_ctrls.perBankRdBursts::10              384                       # Per bank write bursts
system.mem_ctrls.perBankRdBursts::11              397                       # Per bank write bursts
system.mem_ctrls.perBankRdBursts::12              389                       # Per bank write bursts
system.mem_ctrls.perBankRdBursts::13              418                       # Per bank write bursts
system.mem_ctrls.perBankRdBursts::14              422                       # Per bank write bursts
system.mem_ctrls.perBankRdBursts::15              442                       # Per bank write bursts
system.mem_ctrls.perBankWrBursts::0                 0                       # Per bank write bursts
system.mem_ctrls.perBankWrBursts::1                 0                       # Per bank write bursts
system.mem_ctrls.perBankWrBursts::2                 0                       # Per bank write bursts
system.mem_ctrls.perBankWrBursts::3                 0                       # Per bank write bursts
system.mem_ctrls.perBankWrBursts::4                 0                       # Per bank write bursts
system.mem_ctrls.perBankWrBursts::5                 0                       # Per bank write bursts
system.mem_ctrls.perBankWrBursts::6                 0                       # Per bank write bursts
system.mem_ctrls.perBankWrBursts::7                 0                       # Per bank write bursts
system.mem_ctrls.perBankWrBursts::8                 0                       # Per bank write bursts
system.mem_ctrls.perBankWrBursts::9                 0                       # Per bank write bursts
system.mem_ctrls.perBankWrBursts::10                0                       # Per bank write bursts
system.mem_ctrls.perBankWrBursts::11                0                       # Per bank write bursts
system.mem_ctrls.perBankWrBursts::12                0                       # Per bank write bursts
system.mem_ctrls.perBankWrBursts::13                0                       # Per bank write bursts
system.mem_ctrls.perBankWrBursts::14                0                       # Per bank write bursts
system.mem_ctrls.perBankWrBursts::15                0                       # Per bank write bursts
system.mem_ctrls.numRdRetry                         0                       # Number of times read queue was full causing retry
system.mem_ctrls.numWrRetry                         0                       # Number of times write queue was full causing retry
system.mem_ctrls.totGap                    1420752500                       # Total gap between requests
system.mem_ctrls.readPktSize::0                     0                       # Read request sizes (log2)
system.mem_ctrls.readPktSize::1                     0                       # Read request sizes (log2)
system.mem_ctrls.readPktSize::2                     0                       # Read request sizes (log2)
system.mem_ctrls.readPktSize::3                     0                       # Read request sizes (log2)
system.mem_ctrls.readPktSize::4                     0                       # Read request sizes (log2)
system.mem_ctrls.readPktSize::5                     0                       # Read request sizes (log2)
system.mem_ctrls.readPktSize::6                  7125                       # Read request sizes (log2)
system.mem_ctrls.writePktSize::0                    0                       # Write request sizes (log2)
system.mem_ctrls.writePktSize::1                    0                       # Write request sizes (log2)
system.mem_ctrls.writePktSize::2                    0                       # Write request sizes (log2)
system.mem_ctrls.writePktSize::3                    0                       # Write request sizes (log2)
system.mem_ctrls.writePktSize::4                    0                       # Write request sizes (log2)
system.mem_ctrls.writePktSize::5                    0                       # Write request sizes (log2)
system.mem_ctrls.writePktSize::6                   17                       # Write request sizes (log2)
system.mem_ctrls.rdQLenPdf::0                    3264                       # What read queue length does an incoming req see
system.mem_ctrls.rdQLenPdf::1                    2541                       # What read queue length does an incoming req see
system.mem_ctrls.rdQLenPdf::2                     615                       # What read queue length does an incoming req see
system.mem_ctrls.rdQLenPdf::3                     208                       # What read queue length does an incoming req see
system.mem_ctrls.rdQLenPdf::4                     116                       # What read queue length does an incoming req see
system.mem_ctrls.rdQLenPdf::5                      99                       # What read queue length does an incoming req see
system.mem_ctrls.rdQLenPdf::6                      87                       # What read queue length does an incoming req see
system.mem_ctrls.rdQLenPdf::7                      85                       # What read queue length does an incoming req see
system.mem_ctrls.rdQLenPdf::8                      86                       # What read queue length does an incoming req see
system.mem_ctrls.rdQLenPdf::9                       9                       # What read queue length does an incoming req see
system.mem_ctrls.rdQLenPdf::10                      5                       # What read queue length does an incoming req see
system.mem_ctrls.rdQLenPdf::11                      1                       # What read queue length does an incoming req see
system.mem_ctrls.rdQLenPdf::12                      1                       # What read queue length does an incoming req see
system.mem_ctrls.rdQLenPdf::13                      0                       # What read queue length does an incoming req see
system.mem_ctrls.rdQLenPdf::14                      0                       # What read queue length does an incoming req see
system.mem_ctrls.rdQLenPdf::15                      0                       # What read queue length does an incoming req see
system.mem_ctrls.rdQLenPdf::16                      0                       # What read queue length does an incoming req see
system.mem_ctrls.rdQLenPdf::17                      0                       # What read queue length does an incoming req see
system.mem_ctrls.rdQLenPdf::18                      0                       # What read queue length does an incoming req see
system.mem_ctrls.rdQLenPdf::19                      0                       # What read queue length does an incoming req see
system.mem_ctrls.rdQLenPdf::20                      0                       # What read queue length does an incoming req see
system.mem_ctrls.rdQLenPdf::21                      0                       # What read queue length does an incoming req see
system.mem_ctrls.rdQLenPdf::22                      0                       # What read queue length does an incoming req see
system.mem_ctrls.rdQLenPdf::23                      0                       # What read queue length does an incoming req see
system.mem_ctrls.rdQLenPdf::24                      0                       # What read queue length does an incoming req see
system.mem_ctrls.rdQLenPdf::25                      0                       # What read queue length does an incoming req see
system.mem_ctrls.rdQLenPdf::26                      0                       # What read queue length does an incoming req see
system.mem_ctrls.rdQLenPdf::27                      0                       # What read queue length does an incoming req see
system.mem_ctrls.rdQLenPdf::28                      0                       # What read queue length does an incoming req see
system.mem_ctrls.rdQLenPdf::29                      0                       # What read queue length does an incoming req see
system.mem_ctrls.rdQLenPdf::30                      0                       # What read queue length does an incoming req see
system.mem_ctrls.rdQLenPdf::31                      0                       # What read queue length does an incoming req see
system.mem_ctrls.wrQLenPdf::0                       1                       # What write queue length does an incoming req see
system.mem_ctrls.wrQLenPdf::1                       1                       # What write queue length does an incoming req see
system.mem_ctrls.wrQLenPdf::2                       1                       # What write queue length does an incoming req see
system.mem_ctrls.wrQLenPdf::3                       1                       # What write queue length does an incoming req see
system.mem_ctrls.wrQLenPdf::4                       1                       # What write queue length does an incoming req see
system.mem_ctrls.wrQLenPdf::5                       1                       # What write queue length does an incoming req see
system.mem_ctrls.wrQLenPdf::6                       1                       # What write queue length does an incoming req see
system.mem_ctrls.wrQLenPdf::7                       1                       # What write queue length does an incoming req see
system.mem_ctrls.wrQLenPdf::8                       1                       # What write queue length does an incoming req see
system.mem_ctrls.wrQLenPdf::9                       1                       # What write queue length does an incoming req see
system.mem_ctrls.wrQLenPdf::10                      1                       # What write queue length does an incoming req see
system.mem_ctrls.wrQLenPdf::11                      1                       # What write queue length does an incoming req see
system.mem_ctrls.wrQLenPdf::12                      1                       # What write queue length does an incoming req see
system.mem_ctrls.wrQLenPdf::13                      1                       # What write queue length does an incoming req see
system.mem_ctrls.wrQLenPdf::14                      1                       # What write queue length does an incoming req see
system.mem_ctrls.wrQLenPdf::15                      1                       # What write queue length does an incoming req see
system.mem_ctrls.wrQLenPdf::16                      1                       # What write queue length does an incoming req see
system.mem_ctrls.wrQLenPdf::17                      0                       # What write queue length does an incoming req see
system.mem_ctrls.wrQLenPdf::18                      0                       # What write queue length does an incoming req see
system.mem_ctrls.wrQLenPdf::19                      0                       # What write queue length does an incoming req see
system.mem_ctrls.wrQLenPdf::20                      0                       # What write queue length does an incoming req see
system.mem_ctrls.wrQLenPdf::21                      0                       # What write queue length does an incoming req see
system.mem_ctrls.wrQLenPdf::22                      0                       # What write queue length does an incoming req see
system.mem_ctrls.wrQLenPdf::23                      0                       # What write queue length does an incoming req see
system.mem_ctrls.wrQLenPdf::24                      0                       # What write queue length does an incoming req see
system.mem_ctrls.wrQLenPdf::25                      0                       # What write queue length does an incoming req see
system.mem_ctrls.wrQLenPdf::26                      0                       # What write queue length does an incoming req see
system.mem_ctrls.wrQLenPdf::27                      0                       # What write queue length does an incoming req see
system.mem_ctrls.wrQLenPdf::28                      0                       # What write queue length does an incoming req see
system.mem_ctrls.wrQLenPdf::29                      0                       # What write queue length does an incoming req see
system.mem_ctrls.wrQLenPdf::30                      0                       # What write queue length does an incoming req see
system.mem_ctrls.wrQLenPdf::31                      0                       # What write queue length does an incoming req see
system.mem_ctrls.wrQLenPdf::32                      0                       # What write queue length does an incoming req see
system.mem_ctrls.wrQLenPdf::33                      0                       # What write queue length does an incoming req see
system.mem_ctrls.wrQLenPdf::34                      0                       # What write queue length does an incoming req see
system.mem_ctrls.wrQLenPdf::35                      0                       # What write queue length does an incoming req see
system.mem_ctrls.wrQLenPdf::36                      0                       # What write queue length does an incoming req see
system.mem_ctrls.wrQLenPdf::37                      0                       # What write queue length does an incoming req see
system.mem_ctrls.wrQLenPdf::38                      0                       # What write queue length does an incoming req see
system.mem_ctrls.wrQLenPdf::39                      0                       # What write queue length does an incoming req see
system.mem_ctrls.wrQLenPdf::40                      0                       # What write queue length does an incoming req see
system.mem_ctrls.wrQLenPdf::41                      0                       # What write queue length does an incoming req see
system.mem_ctrls.wrQLenPdf::42                      0                       # What write queue length does an incoming req see
system.mem_ctrls.wrQLenPdf::43                      0                       # What write queue length does an incoming req see
system.mem_ctrls.wrQLenPdf::44                      0                       # What write queue length does an incoming req see
system.mem_ctrls.wrQLenPdf::45                      0                       # What write queue length does an incoming req see
system.mem_ctrls.wrQLenPdf::46                      0                       # What write queue length does an incoming req see
system.mem_ctrls.wrQLenPdf::47                      0                       # What write queue length does an incoming req see
system.mem_ctrls.wrQLenPdf::48                      0                       # What write queue length does an incoming req see
system.mem_ctrls.wrQLenPdf::49                      0                       # What write queue length does an incoming req see
system.mem_ctrls.wrQLenPdf::50                      0                       # What write queue length does an incoming req see
system.mem_ctrls.wrQLenPdf::51                      0                       # What write queue length does an incoming req see
system.mem_ctrls.wrQLenPdf::52                      0                       # What write queue length does an incoming req see
system.mem_ctrls.wrQLenPdf::53                      0                       # What write queue length does an incoming req see
system.mem_ctrls.wrQLenPdf::54                      0                       # What write queue length does an incoming req see
system.mem_ctrls.wrQLenPdf::55                      0                       # What write queue length does an incoming req see
system.mem_ctrls.wrQLenPdf::56                      0                       # What write queue length does an incoming req see
system.mem_ctrls.wrQLenPdf::57                      0                       # What write queue length does an incoming req see
system.mem_ctrls.wrQLenPdf::58                      0                       # What write queue length does an incoming req see
system.mem_ctrls.wrQLenPdf::59                      0                       # What write queue length does an incoming req see
system.mem_ctrls.wrQLenPdf::60                      0                       # What write queue length does an incoming req see
system.mem_ctrls.wrQLenPdf::61                      0                       # What write queue length does an incoming req see
system.mem_ctrls.wrQLenPdf::62                      0                       # What write queue length does an incoming req see
system.mem_ctrls.wrQLenPdf::63                      0                       # What write queue length does an incoming req see
system.mem_ctrls.bytesPerActivate::samples         2600                       # Bytes accessed per row activation
system.mem_ctrls.bytesPerActivate::mean    174.498462                       # Bytes accessed per row activation
system.mem_ctrls.bytesPerActivate::gmean    91.372443                       # Bytes accessed per row activation
system.mem_ctrls.bytesPerActivate::stdev   294.297545                       # Bytes accessed per row activation
system.mem_ctrls.bytesPerActivate::0-127         2192     84.31%     84.31% # Bytes accessed per row activation
system.mem_ctrls.bytesPerActivate::128-255           73      2.81%     87.12% # Bytes accessed per row activation
system.mem_ctrls.bytesPerActivate::256-383           30      1.15%     88.27% # Bytes accessed per row activation
system.mem_ctrls.bytesPerActivate::384-511           11      0.42%     88.69% # Bytes accessed per row activation
system.mem_ctrls.bytesPerActivate::512-639           14      0.54%     89.23% # Bytes accessed per row activation
system.mem_ctrls.bytesPerActivate::640-767           11      0.42%     89.65% # Bytes accessed per row activation
system.mem_ctrls.bytesPerActivate::768-895            5      0.19%     89.85% # Bytes accessed per row activation
system.mem_ctrls.bytesPerActivate::896-1023            1      0.04%     89.88% # Bytes accessed per row activation
system.mem_ctrls.bytesPerActivate::1024-1151          263     10.12%    100.00% # Bytes accessed per row activation
system.mem_ctrls.bytesPerActivate::total         2600                       # Bytes accessed per row activation
system.mem_ctrls.totQLat                     99994907                       # Total ticks spent queuing
system.mem_ctrls.totMemAccLat               233438657                       # Total ticks spent from burst creation until serviced by the DRAM
system.mem_ctrls.totBusLat                   35585000                       # Total ticks spent in databus transfers
system.mem_ctrls.avgQLat                     14050.15                       # Average queueing delay per DRAM burst
system.mem_ctrls.avgBusLat                    5000.00                       # Average bus latency per DRAM burst
system.mem_ctrls.avgMemAccLat                32800.15                       # Average memory access latency per DRAM burst
system.mem_ctrls.avgRdBW                       320.59                       # Average DRAM read bandwidth in MiByte/s
system.mem_ctrls.avgWrBW                         0.00                       # Average achieved write bandwidth in MiByte/s
system.mem_ctrls.avgRdBWSys                    320.95                       # Average system read bandwidth in MiByte/s
system.mem_ctrls.avgWrBWSys                      0.77                       # Average system write bandwidth in MiByte/s
system.mem_ctrls.peakBW                      12800.00                       # Theoretical peak bandwidth in MiByte/s
system.mem_ctrls.busUtil                         2.50                       # Data bus utilization in percentage
system.mem_ctrls.busUtilRead                     2.50                       # Data bus utilization in percentage for reads
system.mem_ctrls.busUtilWrite                    0.00                       # Data bus utilization in percentage for writes
system.mem_ctrls.avgRdQLen                       1.60                       # Average read queue length when enqueuing
system.mem_ctrls.avgWrQLen                      10.24                       # Average write queue length when enqueuing
system.mem_ctrls.readRowHits                     4508                       # Number of row buffer hits during reads
system.mem_ctrls.writeRowHits                       0                       # Number of row buffer hits during writes
system.mem_ctrls.readRowHitRate                 63.34                       # Row buffer hit rate for reads
system.mem_ctrls.writeRowHitRate                 0.00                       # Row buffer hit rate for writes
system.mem_ctrls.avgGap                     198929.22                       # Average gap between requests
system.mem_ctrls.pageHitRate                    63.19                       # Row buffer hit rate, read and write combined
system.mem_ctrls_0.actEnergy                 10636920                       # Energy for activate commands per rank (pJ)
system.mem_ctrls_0.preEnergy                  5803875                       # Energy for precharge commands per rank (pJ)
system.mem_ctrls_0.readEnergy                30092400                       # Energy for read commands per rank (pJ)
system.mem_ctrls_0.writeEnergy                      0                       # Energy for write commands per rank (pJ)
system.mem_ctrls_0.refreshEnergy             92557920                       # Energy for refresh commands per rank (pJ)
system.mem_ctrls_0.actBackEnergy            539869230                       # Energy for active background per rank (pJ)
system.mem_ctrls_0.preBackEnergy            376865250                       # Energy for precharge background per rank (pJ)
system.mem_ctrls_0.totalEnergy             1055825595                       # Total energy per rank (pJ)
system.mem_ctrls_0.averagePower            744.907657                       # Core power per rank (mW)
system.mem_ctrls_0.memoryStateTime::IDLE    622638198                       # Time in different power states
system.mem_ctrls_0.memoryStateTime::REF      47320000                       # Time in different power states
system.mem_ctrls_0.memoryStateTime::PRE_PDN            0                       # Time in different power states
system.mem_ctrls_0.memoryStateTime::ACT     747446052                       # Time in different power states
system.mem_ctrls_0.memoryStateTime::ACT_PDN            0                       # Time in different power states
system.mem_ctrls_1.actEnergy                  8973720                       # Energy for activate commands per rank (pJ)
system.mem_ctrls_1.preEnergy                  4896375                       # Energy for precharge commands per rank (pJ)
system.mem_ctrls_1.readEnergy                25006800                       # Energy for read commands per rank (pJ)
system.mem_ctrls_1.writeEnergy                      0                       # Energy for write commands per rank (pJ)
system.mem_ctrls_1.refreshEnergy             92557920                       # Energy for refresh commands per rank (pJ)
system.mem_ctrls_1.actBackEnergy            465852735                       # Energy for active background per rank (pJ)
system.mem_ctrls_1.preBackEnergy            441763500                       # Energy for precharge background per rank (pJ)
system.mem_ctrls_1.totalEnergy             1039051050                       # Total energy per rank (pJ)
system.mem_ctrls_1.averagePower            733.097423                       # Core power per rank (mW)
system.mem_ctrls_1.memoryStateTime::IDLE    731003153                       # Time in different power states
system.mem_ctrls_1.memoryStateTime::REF      47320000                       # Time in different power states
system.mem_ctrls_1.memoryStateTime::PRE_PDN            0                       # Time in different power states
system.mem_ctrls_1.memoryStateTime::ACT     639323847                       # Time in different power states
system.mem_ctrls_1.memoryStateTime::ACT_PDN            0                       # Time in different power states
system.cpu00.branchPred.lookups                176030                       # Number of BP lookups
system.cpu00.branchPred.condPredicted          173430                       # Number of conditional branches predicted
system.cpu00.branchPred.condIncorrect            2628                       # Number of conditional branches incorrect
system.cpu00.branchPred.BTBLookups             170147                       # Number of BTB lookups
system.cpu00.branchPred.BTBHits                169317                       # Number of BTB hits
system.cpu00.branchPred.BTBCorrect                  0                       # Number of correct BTB predictions (this stat may not work properly.
system.cpu00.branchPred.BTBHitPct           99.512187                       # BTB Hit Percentage
system.cpu00.branchPred.usedRAS                   919                       # Number of times the RAS was used to get a target.
system.cpu00.branchPred.RASInCorrect                7                       # Number of incorrect RAS predictions.
system.cpu_voltage_domain.voltage                   1                       # Voltage in Volts
system.cpu_clk_domain.clock                       500                       # Clock period in ticks
system.cpu00.dstage2_mmu.stage2_tlb.walker.walks            0                       # Table walker walks requested
system.cpu00.dstage2_mmu.stage2_tlb.walker.walkRequestOrigin_Requested::Data            0                       # Table walker requests started/completed, data/inst
system.cpu00.dstage2_mmu.stage2_tlb.walker.walkRequestOrigin_Requested::Inst            0                       # Table walker requests started/completed, data/inst
system.cpu00.dstage2_mmu.stage2_tlb.walker.walkRequestOrigin_Requested::total            0                       # Table walker requests started/completed, data/inst
system.cpu00.dstage2_mmu.stage2_tlb.walker.walkRequestOrigin_Completed::Data            0                       # Table walker requests started/completed, data/inst
system.cpu00.dstage2_mmu.stage2_tlb.walker.walkRequestOrigin_Completed::Inst            0                       # Table walker requests started/completed, data/inst
system.cpu00.dstage2_mmu.stage2_tlb.walker.walkRequestOrigin_Completed::total            0                       # Table walker requests started/completed, data/inst
system.cpu00.dstage2_mmu.stage2_tlb.walker.walkRequestOrigin::total            0                       # Table walker requests started/completed, data/inst
system.cpu00.dstage2_mmu.stage2_tlb.inst_hits            0                       # ITB inst hits
system.cpu00.dstage2_mmu.stage2_tlb.inst_misses            0                       # ITB inst misses
system.cpu00.dstage2_mmu.stage2_tlb.read_hits            0                       # DTB read hits
system.cpu00.dstage2_mmu.stage2_tlb.read_misses            0                       # DTB read misses
system.cpu00.dstage2_mmu.stage2_tlb.write_hits            0                       # DTB write hits
system.cpu00.dstage2_mmu.stage2_tlb.write_misses            0                       # DTB write misses
system.cpu00.dstage2_mmu.stage2_tlb.flush_tlb            0                       # Number of times complete TLB was flushed
system.cpu00.dstage2_mmu.stage2_tlb.flush_tlb_mva            0                       # Number of times TLB was flushed by MVA
system.cpu00.dstage2_mmu.stage2_tlb.flush_tlb_mva_asid            0                       # Number of times TLB was flushed by MVA & ASID
system.cpu00.dstage2_mmu.stage2_tlb.flush_tlb_asid            0                       # Number of times TLB was flushed by ASID
system.cpu00.dstage2_mmu.stage2_tlb.flush_entries            0                       # Number of entries that have been flushed from TLB
system.cpu00.dstage2_mmu.stage2_tlb.align_faults            0                       # Number of TLB faults due to alignment restrictions
system.cpu00.dstage2_mmu.stage2_tlb.prefetch_faults            0                       # Number of TLB faults due to prefetch
system.cpu00.dstage2_mmu.stage2_tlb.domain_faults            0                       # Number of TLB faults due to domain restrictions
system.cpu00.dstage2_mmu.stage2_tlb.perms_faults            0                       # Number of TLB faults due to permissions restrictions
system.cpu00.dstage2_mmu.stage2_tlb.read_accesses            0                       # DTB read accesses
system.cpu00.dstage2_mmu.stage2_tlb.write_accesses            0                       # DTB write accesses
system.cpu00.dstage2_mmu.stage2_tlb.inst_accesses            0                       # ITB inst accesses
system.cpu00.dstage2_mmu.stage2_tlb.hits            0                       # DTB hits
system.cpu00.dstage2_mmu.stage2_tlb.misses            0                       # DTB misses
system.cpu00.dstage2_mmu.stage2_tlb.accesses            0                       # DTB accesses
system.cpu00.dtb.walker.walks                       0                       # Table walker walks requested
system.cpu00.dtb.walker.walkRequestOrigin_Requested::Data            0                       # Table walker requests started/completed, data/inst
system.cpu00.dtb.walker.walkRequestOrigin_Requested::Inst            0                       # Table walker requests started/completed, data/inst
system.cpu00.dtb.walker.walkRequestOrigin_Requested::total            0                       # Table walker requests started/completed, data/inst
system.cpu00.dtb.walker.walkRequestOrigin_Completed::Data            0                       # Table walker requests started/completed, data/inst
system.cpu00.dtb.walker.walkRequestOrigin_Completed::Inst            0                       # Table walker requests started/completed, data/inst
system.cpu00.dtb.walker.walkRequestOrigin_Completed::total            0                       # Table walker requests started/completed, data/inst
system.cpu00.dtb.walker.walkRequestOrigin::total            0                       # Table walker requests started/completed, data/inst
system.cpu00.dtb.inst_hits                          0                       # ITB inst hits
system.cpu00.dtb.inst_misses                        0                       # ITB inst misses
system.cpu00.dtb.read_hits                          0                       # DTB read hits
system.cpu00.dtb.read_misses                        0                       # DTB read misses
system.cpu00.dtb.write_hits                         0                       # DTB write hits
system.cpu00.dtb.write_misses                       0                       # DTB write misses
system.cpu00.dtb.flush_tlb                          0                       # Number of times complete TLB was flushed
system.cpu00.dtb.flush_tlb_mva                      0                       # Number of times TLB was flushed by MVA
system.cpu00.dtb.flush_tlb_mva_asid                 0                       # Number of times TLB was flushed by MVA & ASID
system.cpu00.dtb.flush_tlb_asid                     0                       # Number of times TLB was flushed by ASID
system.cpu00.dtb.flush_entries                      0                       # Number of entries that have been flushed from TLB
system.cpu00.dtb.align_faults                       0                       # Number of TLB faults due to alignment restrictions
system.cpu00.dtb.prefetch_faults                    0                       # Number of TLB faults due to prefetch
system.cpu00.dtb.domain_faults                      0                       # Number of TLB faults due to domain restrictions
system.cpu00.dtb.perms_faults                       0                       # Number of TLB faults due to permissions restrictions
system.cpu00.dtb.read_accesses                      0                       # DTB read accesses
system.cpu00.dtb.write_accesses                     0                       # DTB write accesses
system.cpu00.dtb.inst_accesses                      0                       # ITB inst accesses
system.cpu00.dtb.hits                               0                       # DTB hits
system.cpu00.dtb.misses                             0                       # DTB misses
system.cpu00.dtb.accesses                           0                       # DTB accesses
system.cpu00.istage2_mmu.stage2_tlb.walker.walks            0                       # Table walker walks requested
system.cpu00.istage2_mmu.stage2_tlb.walker.walkRequestOrigin_Requested::Data            0                       # Table walker requests started/completed, data/inst
system.cpu00.istage2_mmu.stage2_tlb.walker.walkRequestOrigin_Requested::Inst            0                       # Table walker requests started/completed, data/inst
system.cpu00.istage2_mmu.stage2_tlb.walker.walkRequestOrigin_Requested::total            0                       # Table walker requests started/completed, data/inst
system.cpu00.istage2_mmu.stage2_tlb.walker.walkRequestOrigin_Completed::Data            0                       # Table walker requests started/completed, data/inst
system.cpu00.istage2_mmu.stage2_tlb.walker.walkRequestOrigin_Completed::Inst            0                       # Table walker requests started/completed, data/inst
system.cpu00.istage2_mmu.stage2_tlb.walker.walkRequestOrigin_Completed::total            0                       # Table walker requests started/completed, data/inst
system.cpu00.istage2_mmu.stage2_tlb.walker.walkRequestOrigin::total            0                       # Table walker requests started/completed, data/inst
system.cpu00.istage2_mmu.stage2_tlb.inst_hits            0                       # ITB inst hits
system.cpu00.istage2_mmu.stage2_tlb.inst_misses            0                       # ITB inst misses
system.cpu00.istage2_mmu.stage2_tlb.read_hits            0                       # DTB read hits
system.cpu00.istage2_mmu.stage2_tlb.read_misses            0                       # DTB read misses
system.cpu00.istage2_mmu.stage2_tlb.write_hits            0                       # DTB write hits
system.cpu00.istage2_mmu.stage2_tlb.write_misses            0                       # DTB write misses
system.cpu00.istage2_mmu.stage2_tlb.flush_tlb            0                       # Number of times complete TLB was flushed
system.cpu00.istage2_mmu.stage2_tlb.flush_tlb_mva            0                       # Number of times TLB was flushed by MVA
system.cpu00.istage2_mmu.stage2_tlb.flush_tlb_mva_asid            0                       # Number of times TLB was flushed by MVA & ASID
system.cpu00.istage2_mmu.stage2_tlb.flush_tlb_asid            0                       # Number of times TLB was flushed by ASID
system.cpu00.istage2_mmu.stage2_tlb.flush_entries            0                       # Number of entries that have been flushed from TLB
system.cpu00.istage2_mmu.stage2_tlb.align_faults            0                       # Number of TLB faults due to alignment restrictions
system.cpu00.istage2_mmu.stage2_tlb.prefetch_faults            0                       # Number of TLB faults due to prefetch
system.cpu00.istage2_mmu.stage2_tlb.domain_faults            0                       # Number of TLB faults due to domain restrictions
system.cpu00.istage2_mmu.stage2_tlb.perms_faults            0                       # Number of TLB faults due to permissions restrictions
system.cpu00.istage2_mmu.stage2_tlb.read_accesses            0                       # DTB read accesses
system.cpu00.istage2_mmu.stage2_tlb.write_accesses            0                       # DTB write accesses
system.cpu00.istage2_mmu.stage2_tlb.inst_accesses            0                       # ITB inst accesses
system.cpu00.istage2_mmu.stage2_tlb.hits            0                       # DTB hits
system.cpu00.istage2_mmu.stage2_tlb.misses            0                       # DTB misses
system.cpu00.istage2_mmu.stage2_tlb.accesses            0                       # DTB accesses
system.cpu00.itb.walker.walks                       0                       # Table walker walks requested
system.cpu00.itb.walker.walkRequestOrigin_Requested::Data            0                       # Table walker requests started/completed, data/inst
system.cpu00.itb.walker.walkRequestOrigin_Requested::Inst            0                       # Table walker requests started/completed, data/inst
system.cpu00.itb.walker.walkRequestOrigin_Requested::total            0                       # Table walker requests started/completed, data/inst
system.cpu00.itb.walker.walkRequestOrigin_Completed::Data            0                       # Table walker requests started/completed, data/inst
system.cpu00.itb.walker.walkRequestOrigin_Completed::Inst            0                       # Table walker requests started/completed, data/inst
system.cpu00.itb.walker.walkRequestOrigin_Completed::total            0                       # Table walker requests started/completed, data/inst
system.cpu00.itb.walker.walkRequestOrigin::total            0                       # Table walker requests started/completed, data/inst
system.cpu00.itb.inst_hits                          0                       # ITB inst hits
system.cpu00.itb.inst_misses                        0                       # ITB inst misses
system.cpu00.itb.read_hits                          0                       # DTB read hits
system.cpu00.itb.read_misses                        0                       # DTB read misses
system.cpu00.itb.write_hits                         0                       # DTB write hits
system.cpu00.itb.write_misses                       0                       # DTB write misses
system.cpu00.itb.flush_tlb                          0                       # Number of times complete TLB was flushed
system.cpu00.itb.flush_tlb_mva                      0                       # Number of times TLB was flushed by MVA
system.cpu00.itb.flush_tlb_mva_asid                 0                       # Number of times TLB was flushed by MVA & ASID
system.cpu00.itb.flush_tlb_asid                     0                       # Number of times TLB was flushed by ASID
system.cpu00.itb.flush_entries                      0                       # Number of entries that have been flushed from TLB
system.cpu00.itb.align_faults                       0                       # Number of TLB faults due to alignment restrictions
system.cpu00.itb.prefetch_faults                    0                       # Number of TLB faults due to prefetch
system.cpu00.itb.domain_faults                      0                       # Number of TLB faults due to domain restrictions
system.cpu00.itb.perms_faults                       0                       # Number of TLB faults due to permissions restrictions
system.cpu00.itb.read_accesses                      0                       # DTB read accesses
system.cpu00.itb.write_accesses                     0                       # DTB write accesses
system.cpu00.itb.inst_accesses                      0                       # ITB inst accesses
system.cpu00.itb.hits                               0                       # DTB hits
system.cpu00.itb.misses                             0                       # DTB misses
system.cpu00.itb.accesses                           0                       # DTB accesses
system.cpu00.workload.num_syscalls               5821                       # Number of system calls
system.cpu00.numCycles                        2841584                       # number of cpu cycles simulated
system.cpu00.numWorkItemsStarted                    0                       # number of work items this cpu started
system.cpu00.numWorkItemsCompleted                  0                       # number of work items this cpu completed
system.cpu00.fetch.icacheStallCycles            16806                       # Number of cycles fetch is stalled on an Icache miss
system.cpu00.fetch.Insts                      2396490                       # Number of instructions fetch has processed
system.cpu00.fetch.Branches                    176030                       # Number of branches that fetch encountered
system.cpu00.fetch.predictedBranches           170236                       # Number of branches that fetch has predicted taken
system.cpu00.fetch.Cycles                     2779030                       # Number of cycles fetch has run and was not squashing or blocked
system.cpu00.fetch.SquashCycles                  5381                       # Number of cycles fetch has spent squashing
system.cpu00.fetch.MiscStallCycles                395                       # Number of cycles fetch has spent waiting on interrupts, or bad addresses, or out of MSHRs
system.cpu00.fetch.PendingTrapStallCycles          109                       # Number of stall cycles due to pending traps
system.cpu00.fetch.IcacheWaitRetryStallCycles          646                       # Number of stall cycles due to full MSHR
system.cpu00.fetch.CacheLines                  654132                       # Number of cache lines fetched
system.cpu00.fetch.IcacheSquashes                 371                       # Number of outstanding Icache misses that were squashed
system.cpu00.fetch.rateDist::samples          2799676                       # Number of instructions fetched each cycle (Total)
system.cpu00.fetch.rateDist::mean            0.859356                       # Number of instructions fetched each cycle (Total)
system.cpu00.fetch.rateDist::stdev           1.194454                       # Number of instructions fetched each cycle (Total)
system.cpu00.fetch.rateDist::underflows             0      0.00%      0.00% # Number of instructions fetched each cycle (Total)
system.cpu00.fetch.rateDist::0                1677172     59.91%     59.91% # Number of instructions fetched each cycle (Total)
system.cpu00.fetch.rateDist::1                 383663     13.70%     73.61% # Number of instructions fetched each cycle (Total)
system.cpu00.fetch.rateDist::2                 194267      6.94%     80.55% # Number of instructions fetched each cycle (Total)
system.cpu00.fetch.rateDist::3                 544574     19.45%    100.00% # Number of instructions fetched each cycle (Total)
system.cpu00.fetch.rateDist::overflows              0      0.00%    100.00% # Number of instructions fetched each cycle (Total)
system.cpu00.fetch.rateDist::min_value              0                       # Number of instructions fetched each cycle (Total)
system.cpu00.fetch.rateDist::max_value              3                       # Number of instructions fetched each cycle (Total)
system.cpu00.fetch.rateDist::total            2799676                       # Number of instructions fetched each cycle (Total)
system.cpu00.fetch.branchRate                0.061948                       # Number of branch fetches per cycle
system.cpu00.fetch.rate                      0.843364                       # Number of inst fetches per cycle
system.cpu00.decode.IdleCycles                 361901                       # Number of cycles decode is idle
system.cpu00.decode.BlockedCycles             1600772                       # Number of cycles decode is blocked
system.cpu00.decode.RunCycles                  262310                       # Number of cycles decode is running
system.cpu00.decode.UnblockCycles              572344                       # Number of cycles decode is unblocking
system.cpu00.decode.SquashCycles                 2349                       # Number of cycles decode is squashing
system.cpu00.decode.BranchResolved               1024                       # Number of times decode resolved a branch
system.cpu00.decode.BranchMispred                 357                       # Number of times decode detected a branch misprediction
system.cpu00.decode.DecodedInsts              2358591                       # Number of instructions handled by decode
system.cpu00.decode.SquashedInsts                7465                       # Number of squashed instructions handled by decode
system.cpu00.rename.SquashCycles                 2349                       # Number of cycles rename is squashing
system.cpu00.rename.IdleCycles                 506070                       # Number of cycles rename is idle
system.cpu00.rename.BlockCycles               1061278                       # Number of cycles rename is blocking
system.cpu00.rename.serializeStallCycles        12390                       # count of cycles rename stalled for serializing inst
system.cpu00.rename.RunCycles                  601268                       # Number of cycles rename is running
system.cpu00.rename.UnblockCycles              616321                       # Number of cycles rename is unblocking
system.cpu00.rename.RenamedInsts              2349720                       # Number of instructions processed by rename
system.cpu00.rename.SquashedInsts                3412                       # Number of squashed instructions processed by rename
system.cpu00.rename.ROBFullEvents              478954                       # Number of times rename has blocked due to ROB full
system.cpu00.rename.IQFullEvents                  183                       # Number of times rename has blocked due to IQ full
system.cpu00.rename.LQFullEvents                   12                       # Number of times rename has blocked due to LQ full
system.cpu00.rename.SQFullEvents                15843                       # Number of times rename has blocked due to SQ full
system.cpu00.rename.RenamedOperands           2973811                       # Number of destination operands rename has renamed
system.cpu00.rename.RenameLookups            11538166                       # Number of register rename lookups that rename has made
system.cpu00.rename.int_rename_lookups        3872920                       # Number of integer rename lookups
system.cpu00.rename.fp_rename_lookups              22                       # Number of floating rename lookups
system.cpu00.rename.CommittedMaps             2954437                       # Number of HB maps that are committed
system.cpu00.rename.UndoneMaps                  19374                       # Number of HB maps that are undone due to squashing
system.cpu00.rename.serializingInsts              131                       # count of serializing insts renamed
system.cpu00.rename.tempSerializingInsts          129                       # count of temporary serializing insts renamed
system.cpu00.rename.skidInsts                  878086                       # count of insts added to the skid buffer
system.cpu00.memDep0.insertedLoads             535638                       # Number of loads inserted to the mem dependence unit.
system.cpu00.memDep0.insertedStores             74008                       # Number of stores inserted to the mem dependence unit.
system.cpu00.memDep0.conflictingLoads             252                       # Number of conflicting loads.
system.cpu00.memDep0.conflictingStores            118                       # Number of conflicting stores.
system.cpu00.iq.iqInstsAdded                  2344934                       # Number of instructions added to the IQ (excludes non-spec)
system.cpu00.iq.iqNonSpecInstsAdded               266                       # Number of non-speculative instructions added to the IQ
system.cpu00.iq.iqInstsIssued                 2343293                       # Number of instructions issued
system.cpu00.iq.iqSquashedInstsIssued             488                       # Number of squashed instructions issued
system.cpu00.iq.iqSquashedInstsExamined         13133                       # Number of squashed instructions iterated over during squash; mainly for profiling
system.cpu00.iq.iqSquashedOperandsExamined        32272                       # Number of squashed operands that are examined and possibly removed from graph
system.cpu00.iq.iqSquashedNonSpecRemoved           49                       # Number of squashed non-spec instructions that were removed
system.cpu00.iq.issued_per_cycle::samples      2799676                       # Number of insts issued each cycle
system.cpu00.iq.issued_per_cycle::mean       0.836987                       # Number of insts issued each cycle
system.cpu00.iq.issued_per_cycle::stdev      0.958554                       # Number of insts issued each cycle
system.cpu00.iq.issued_per_cycle::underflows            0      0.00%      0.00% # Number of insts issued each cycle
system.cpu00.iq.issued_per_cycle::0           1222918     43.68%     43.68% # Number of insts issued each cycle
system.cpu00.iq.issued_per_cycle::1           1112868     39.75%     83.43% # Number of insts issued each cycle
system.cpu00.iq.issued_per_cycle::2            187258      6.69%     90.12% # Number of insts issued each cycle
system.cpu00.iq.issued_per_cycle::3            250640      8.95%     99.07% # Number of insts issued each cycle
system.cpu00.iq.issued_per_cycle::4             25971      0.93%    100.00% # Number of insts issued each cycle
system.cpu00.iq.issued_per_cycle::5                21      0.00%    100.00% # Number of insts issued each cycle
system.cpu00.iq.issued_per_cycle::6                 0      0.00%    100.00% # Number of insts issued each cycle
system.cpu00.iq.issued_per_cycle::7                 0      0.00%    100.00% # Number of insts issued each cycle
system.cpu00.iq.issued_per_cycle::8                 0      0.00%    100.00% # Number of insts issued each cycle
system.cpu00.iq.issued_per_cycle::overflows            0      0.00%    100.00% # Number of insts issued each cycle
system.cpu00.iq.issued_per_cycle::min_value            0                       # Number of insts issued each cycle
system.cpu00.iq.issued_per_cycle::max_value            5                       # Number of insts issued each cycle
system.cpu00.iq.issued_per_cycle::total       2799676                       # Number of insts issued each cycle
system.cpu00.iq.fu_full::No_OpClass                 0      0.00%      0.00% # attempts to use FU when none available
system.cpu00.iq.fu_full::IntAlu                 13571      6.75%      6.75% # attempts to use FU when none available
system.cpu00.iq.fu_full::IntMult                 4612      2.30%      9.05% # attempts to use FU when none available
system.cpu00.iq.fu_full::IntDiv                     0      0.00%      9.05% # attempts to use FU when none available
system.cpu00.iq.fu_full::FloatAdd                   0      0.00%      9.05% # attempts to use FU when none available
system.cpu00.iq.fu_full::FloatCmp                   0      0.00%      9.05% # attempts to use FU when none available
system.cpu00.iq.fu_full::FloatCvt                   0      0.00%      9.05% # attempts to use FU when none available
system.cpu00.iq.fu_full::FloatMult                  0      0.00%      9.05% # attempts to use FU when none available
system.cpu00.iq.fu_full::FloatDiv                   0      0.00%      9.05% # attempts to use FU when none available
system.cpu00.iq.fu_full::FloatSqrt                  0      0.00%      9.05% # attempts to use FU when none available
system.cpu00.iq.fu_full::SimdAdd                    0      0.00%      9.05% # attempts to use FU when none available
system.cpu00.iq.fu_full::SimdAddAcc                 0      0.00%      9.05% # attempts to use FU when none available
system.cpu00.iq.fu_full::SimdAlu                    0      0.00%      9.05% # attempts to use FU when none available
system.cpu00.iq.fu_full::SimdCmp                    0      0.00%      9.05% # attempts to use FU when none available
system.cpu00.iq.fu_full::SimdCvt                    0      0.00%      9.05% # attempts to use FU when none available
system.cpu00.iq.fu_full::SimdMisc                   0      0.00%      9.05% # attempts to use FU when none available
system.cpu00.iq.fu_full::SimdMult                   0      0.00%      9.05% # attempts to use FU when none available
system.cpu00.iq.fu_full::SimdMultAcc                0      0.00%      9.05% # attempts to use FU when none available
system.cpu00.iq.fu_full::SimdShift                  0      0.00%      9.05% # attempts to use FU when none available
system.cpu00.iq.fu_full::SimdShiftAcc               0      0.00%      9.05% # attempts to use FU when none available
system.cpu00.iq.fu_full::SimdSqrt                   0      0.00%      9.05% # attempts to use FU when none available
system.cpu00.iq.fu_full::SimdFloatAdd               0      0.00%      9.05% # attempts to use FU when none available
system.cpu00.iq.fu_full::SimdFloatAlu               0      0.00%      9.05% # attempts to use FU when none available
system.cpu00.iq.fu_full::SimdFloatCmp               0      0.00%      9.05% # attempts to use FU when none available
system.cpu00.iq.fu_full::SimdFloatCvt               0      0.00%      9.05% # attempts to use FU when none available
system.cpu00.iq.fu_full::SimdFloatDiv               0      0.00%      9.05% # attempts to use FU when none available
system.cpu00.iq.fu_full::SimdFloatMisc              0      0.00%      9.05% # attempts to use FU when none available
system.cpu00.iq.fu_full::SimdFloatMult              0      0.00%      9.05% # attempts to use FU when none available
system.cpu00.iq.fu_full::SimdFloatMultAcc            0      0.00%      9.05% # attempts to use FU when none available
system.cpu00.iq.fu_full::SimdFloatSqrt              0      0.00%      9.05% # attempts to use FU when none available
system.cpu00.iq.fu_full::MemRead               180012     89.58%     98.63% # attempts to use FU when none available
system.cpu00.iq.fu_full::MemWrite                2762      1.37%    100.00% # attempts to use FU when none available
system.cpu00.iq.fu_full::IprAccess                  0      0.00%    100.00% # attempts to use FU when none available
system.cpu00.iq.fu_full::InstPrefetch               0      0.00%    100.00% # attempts to use FU when none available
system.cpu00.iq.FU_type_0::No_OpClass               0      0.00%      0.00% # Type of FU issued
system.cpu00.iq.FU_type_0::IntAlu             1306186     55.74%     55.74% # Type of FU issued
system.cpu00.iq.FU_type_0::IntMult             426287     18.19%     73.93% # Type of FU issued
system.cpu00.iq.FU_type_0::IntDiv                   0      0.00%     73.93% # Type of FU issued
system.cpu00.iq.FU_type_0::FloatAdd                 0      0.00%     73.93% # Type of FU issued
system.cpu00.iq.FU_type_0::FloatCmp                 0      0.00%     73.93% # Type of FU issued
system.cpu00.iq.FU_type_0::FloatCvt                 0      0.00%     73.93% # Type of FU issued
system.cpu00.iq.FU_type_0::FloatMult                0      0.00%     73.93% # Type of FU issued
system.cpu00.iq.FU_type_0::FloatDiv                 0      0.00%     73.93% # Type of FU issued
system.cpu00.iq.FU_type_0::FloatSqrt                0      0.00%     73.93% # Type of FU issued
system.cpu00.iq.FU_type_0::SimdAdd                  0      0.00%     73.93% # Type of FU issued
system.cpu00.iq.FU_type_0::SimdAddAcc               0      0.00%     73.93% # Type of FU issued
system.cpu00.iq.FU_type_0::SimdAlu                  0      0.00%     73.93% # Type of FU issued
system.cpu00.iq.FU_type_0::SimdCmp                  0      0.00%     73.93% # Type of FU issued
system.cpu00.iq.FU_type_0::SimdCvt                  0      0.00%     73.93% # Type of FU issued
system.cpu00.iq.FU_type_0::SimdMisc                 0      0.00%     73.93% # Type of FU issued
system.cpu00.iq.FU_type_0::SimdMult                 0      0.00%     73.93% # Type of FU issued
system.cpu00.iq.FU_type_0::SimdMultAcc              0      0.00%     73.93% # Type of FU issued
system.cpu00.iq.FU_type_0::SimdShift                0      0.00%     73.93% # Type of FU issued
system.cpu00.iq.FU_type_0::SimdShiftAcc             0      0.00%     73.93% # Type of FU issued
system.cpu00.iq.FU_type_0::SimdSqrt                 0      0.00%     73.93% # Type of FU issued
system.cpu00.iq.FU_type_0::SimdFloatAdd             0      0.00%     73.93% # Type of FU issued
system.cpu00.iq.FU_type_0::SimdFloatAlu             0      0.00%     73.93% # Type of FU issued
system.cpu00.iq.FU_type_0::SimdFloatCmp             0      0.00%     73.93% # Type of FU issued
system.cpu00.iq.FU_type_0::SimdFloatCvt             0      0.00%     73.93% # Type of FU issued
system.cpu00.iq.FU_type_0::SimdFloatDiv             0      0.00%     73.93% # Type of FU issued
system.cpu00.iq.FU_type_0::SimdFloatMisc            3      0.00%     73.93% # Type of FU issued
system.cpu00.iq.FU_type_0::SimdFloatMult            0      0.00%     73.93% # Type of FU issued
system.cpu00.iq.FU_type_0::SimdFloatMultAcc            0      0.00%     73.93% # Type of FU issued
system.cpu00.iq.FU_type_0::SimdFloatSqrt            0      0.00%     73.93% # Type of FU issued
system.cpu00.iq.FU_type_0::MemRead             537292     22.93%     96.86% # Type of FU issued
system.cpu00.iq.FU_type_0::MemWrite             73525      3.14%    100.00% # Type of FU issued
system.cpu00.iq.FU_type_0::IprAccess                0      0.00%    100.00% # Type of FU issued
system.cpu00.iq.FU_type_0::InstPrefetch             0      0.00%    100.00% # Type of FU issued
system.cpu00.iq.FU_type_0::total              2343293                       # Type of FU issued
system.cpu00.iq.rate                         0.824643                       # Inst issue rate
system.cpu00.iq.fu_busy_cnt                    200957                       # FU busy when requested
system.cpu00.iq.fu_busy_rate                 0.085758                       # FU busy rate (busy events/executed inst)
system.cpu00.iq.int_inst_queue_reads          7687628                       # Number of integer instruction queue reads
system.cpu00.iq.int_inst_queue_writes         2358324                       # Number of integer instruction queue writes
system.cpu00.iq.int_inst_queue_wakeup_accesses      2336908                       # Number of integer instruction queue wakeup accesses
system.cpu00.iq.fp_inst_queue_reads                79                       # Number of floating instruction queue reads
system.cpu00.iq.fp_inst_queue_writes               28                       # Number of floating instruction queue writes
system.cpu00.iq.fp_inst_queue_wakeup_accesses           28                       # Number of floating instruction queue wakeup accesses
system.cpu00.iq.int_alu_accesses              2544199                       # Number of integer alu accesses
system.cpu00.iq.fp_alu_accesses                    51                       # Number of floating point alu accesses
system.cpu00.iew.lsq.thread0.forwLoads             73                       # Number of loads that had data forwarded from stores
system.cpu00.iew.lsq.thread0.invAddrLoads            0                       # Number of loads ignored due to an invalid address
system.cpu00.iew.lsq.thread0.squashedLoads         3468                       # Number of loads squashed
system.cpu00.iew.lsq.thread0.ignoredResponses            1                       # Number of memory responses ignored because the instruction is squashed
system.cpu00.iew.lsq.thread0.memOrderViolation           20                       # Number of memory ordering violations
system.cpu00.iew.lsq.thread0.squashedStores          921                       # Number of stores squashed
system.cpu00.iew.lsq.thread0.invAddrSwpfs            0                       # Number of software prefetches ignored due to an invalid address
system.cpu00.iew.lsq.thread0.blockedLoads            0                       # Number of blocked loads due to partial load-store forwarding
system.cpu00.iew.lsq.thread0.rescheduledLoads           12                       # Number of loads that were rescheduled
system.cpu00.iew.lsq.thread0.cacheBlocked         2412                       # Number of times an access to memory failed due to the cache being blocked
system.cpu00.iew.iewIdleCycles                      0                       # Number of cycles IEW is idle
system.cpu00.iew.iewSquashCycles                 2349                       # Number of cycles IEW is squashing
system.cpu00.iew.iewBlockCycles                  1944                       # Number of cycles IEW is blocking
system.cpu00.iew.iewUnblockCycles                  51                       # Number of cycles IEW is unblocking
system.cpu00.iew.iewDispatchedInsts           2345215                       # Number of instructions dispatched to IQ
system.cpu00.iew.iewDispSquashedInsts               0                       # Number of squashed instructions skipped by dispatch
system.cpu00.iew.iewDispLoadInsts              535638                       # Number of dispatched load instructions
system.cpu00.iew.iewDispStoreInsts              74008                       # Number of dispatched store instructions
system.cpu00.iew.iewDispNonSpecInsts              127                       # Number of dispatched non-speculative instructions
system.cpu00.iew.iewIQFullEvents                    7                       # Number of times the IQ has become full, causing a stall
[...]
system.tol2bus.pkt_count_system.cpu07.icache.mem_side::system.l2.cpu_side          108                       # Packet count per connected master and slave (bytes)
system.tol2bus.pkt_count_system.cpu07.dcache.mem_side::system.l2.cpu_side       219253                       # Packet count per connected master and slave (bytes)
system.tol2bus.pkt_count_system.cpu08.icache.mem_side::system.l2.cpu_side          106                       # Packet count per connected master and slave (bytes)
system.tol2bus.pkt_count_system.cpu08.dcache.mem_side::system.l2.cpu_side       219588                       # Packet count per connected master and slave (bytes)
system.tol2bus.pkt_count_system.cpu09.icache.mem_side::system.l2.cpu_side          106                       # Packet count per connected master and slave (bytes)
system.tol2bus.pkt_count_system.cpu09.dcache.mem_side::system.l2.cpu_side       219157                       # Packet count per connected master and slave (bytes)
system.tol2bus.pkt_count_system.cpu10.icache.mem_side::system.l2.cpu_side          112                       # Packet count per connected master and slave (bytes)
system.tol2bus.pkt_count_system.cpu10.dcache.mem_side::system.l2.cpu_side       219016                       # Packet count per connected master and slave (bytes)
system.tol2bus.pkt_count_system.cpu11.icache.mem_side::system.l2.cpu_side          108                       # Packet count per connected master and slave (bytes)
system.tol2bus.pkt_count_system.cpu11.dcache.mem_side::system.l2.cpu_side       219537                       # Packet count per connected master and slave (bytes)
system.tol2bus.pkt_count_system.cpu12.icache.mem_side::system.l2.cpu_side          114                       # Packet count per connected master and slave (bytes)
system.tol2bus.pkt_count_system.cpu12.dcache.mem_side::system.l2.cpu_side       218868                       # Packet count per connected master and slave (bytes)
system.tol2bus.pkt_count_system.cpu13.icache.mem_side::system.l2.cpu_side          114                       # Packet count per connected master and slave (bytes)
system.tol2bus.pkt_count_system.cpu13.dcache.mem_side::system.l2.cpu_side       219099                       # Packet count per connected master and slave (bytes)
system.tol2bus.pkt_count_system.cpu14.icache.mem_side::system.l2.cpu_side          116                       # Packet count per connected master and slave (bytes)
system.tol2bus.pkt_count_system.cpu14.dcache.mem_side::system.l2.cpu_side       219386                       # Packet count per connected master and slave (bytes)
system.tol2bus.pkt_count_system.cpu15.icache.mem_side::system.l2.cpu_side          112                       # Packet count per connected master and slave (bytes)
system.tol2bus.pkt_count_system.cpu15.dcache.mem_side::system.l2.cpu_side       219491                       # Packet count per connected master and slave (bytes)
system.tol2bus.pkt_count::total               3571228                       # Packet count per connected master and slave (bytes)
system.tol2bus.pkt_size_system.cpu00.icache.mem_side::system.l2.cpu_side        42432                       # Cumulative packet size per connected master and slave (bytes)
system.tol2bus.pkt_size_system.cpu00.dcache.mem_side::system.l2.cpu_side      9080832                       # Cumulative packet size per connected master and slave (bytes)
system.tol2bus.pkt_size_system.cpu01.icache.mem_side::system.l2.cpu_side         3392                       # Cumulative packet size per connected master and slave (bytes)
system.tol2bus.pkt_size_system.cpu01.dcache.mem_side::system.l2.cpu_side      5465088                       # Cumulative packet size per connected master and slave (bytes)
system.tol2bus.pkt_size_system.cpu02.icache.mem_side::system.l2.cpu_side         3392                       # Cumulative packet size per connected master and slave (bytes)
system.tol2bus.pkt_size_system.cpu02.dcache.mem_side::system.l2.cpu_side      5482432                       # Cumulative packet size per connected master and slave (bytes)
system.tol2bus.pkt_size_system.cpu03.icache.mem_side::system.l2.cpu_side         3392                       # Cumulative packet size per connected master and slave (bytes)
system.tol2bus.pkt_size_system.cpu03.dcache.mem_side::system.l2.cpu_side      5486272                       # Cumulative packet size per connected master and slave (bytes)
system.tol2bus.pkt_size_system.cpu04.icache.mem_side::system.l2.cpu_side         3392                       # Cumulative packet size per connected master and slave (bytes)
system.tol2bus.pkt_size_system.cpu04.dcache.mem_side::system.l2.cpu_side      5504512                       # Cumulative packet size per connected master and slave (bytes)
system.tol2bus.pkt_size_system.cpu05.icache.mem_side::system.l2.cpu_side         3456                       # Cumulative packet size per connected master and slave (bytes)
system.tol2bus.pkt_size_system.cpu05.dcache.mem_side::system.l2.cpu_side      5487744                       # Cumulative packet size per connected master and slave (bytes)
system.tol2bus.pkt_size_system.cpu06.icache.mem_side::system.l2.cpu_side         3456                       # Cumulative packet size per connected master and slave (bytes)
system.tol2bus.pkt_size_system.cpu06.dcache.mem_side::system.l2.cpu_side      5493312                       # Cumulative packet size per connected master and slave (bytes)
system.tol2bus.pkt_size_system.cpu07.icache.mem_side::system.l2.cpu_side         3456                       # Cumulative packet size per connected master and slave (bytes)
system.tol2bus.pkt_size_system.cpu07.dcache.mem_side::system.l2.cpu_side      5491712                       # Cumulative packet size per connected master and slave (bytes)
system.tol2bus.pkt_size_system.cpu08.icache.mem_side::system.l2.cpu_side         3392                       # Cumulative packet size per connected master and slave (bytes)
system.tol2bus.pkt_size_system.cpu08.dcache.mem_side::system.l2.cpu_side      5513216                       # Cumulative packet size per connected master and slave (bytes)
system.tol2bus.pkt_size_system.cpu09.icache.mem_side::system.l2.cpu_side         3392                       # Cumulative packet size per connected master and slave (bytes)
system.tol2bus.pkt_size_system.cpu09.dcache.mem_side::system.l2.cpu_side      5485248                       # Cumulative packet size per connected master and slave (bytes)
system.tol2bus.pkt_size_system.cpu10.icache.mem_side::system.l2.cpu_side         3584                       # Cumulative packet size per connected master and slave (bytes)
system.tol2bus.pkt_size_system.cpu10.dcache.mem_side::system.l2.cpu_side      5476608                       # Cumulative packet size per connected master and slave (bytes)
system.tol2bus.pkt_size_system.cpu11.icache.mem_side::system.l2.cpu_side         3456                       # Cumulative packet size per connected master and slave (bytes)
system.tol2bus.pkt_size_system.cpu11.dcache.mem_side::system.l2.cpu_side      5509440                       # Cumulative packet size per connected master and slave (bytes)
system.tol2bus.pkt_size_system.cpu12.icache.mem_side::system.l2.cpu_side         3648                       # Cumulative packet size per connected master and slave (bytes)
system.tol2bus.pkt_size_system.cpu12.dcache.mem_side::system.l2.cpu_side      5466880                       # Cumulative packet size per connected master and slave (bytes)
system.tol2bus.pkt_size_system.cpu13.icache.mem_side::system.l2.cpu_side         3648                       # Cumulative packet size per connected master and slave (bytes)
system.tol2bus.pkt_size_system.cpu13.dcache.mem_side::system.l2.cpu_side      5482432                       # Cumulative packet size per connected master and slave (bytes)
system.tol2bus.pkt_size_system.cpu14.icache.mem_side::system.l2.cpu_side         3712                       # Cumulative packet size per connected master and slave (bytes)
system.tol2bus.pkt_size_system.cpu14.dcache.mem_side::system.l2.cpu_side      5500480                       # Cumulative packet size per connected master and slave (bytes)
system.tol2bus.pkt_size_system.cpu15.icache.mem_side::system.l2.cpu_side         3584                       # Cumulative packet size per connected master and slave (bytes)
system.tol2bus.pkt_size_system.cpu15.dcache.mem_side::system.l2.cpu_side      5507456                       # Cumulative packet size per connected master and slave (bytes)
system.tol2bus.pkt_size::total               91528448                       # Cumulative packet size per connected master and slave (bytes)
system.tol2bus.snoops                          824717                       # Total snoops (count)
system.tol2bus.snoop_fanout::samples          2254669                       # Request fanout histogram
system.tol2bus.snoop_fanout::mean           31.002457                       # Request fanout histogram
system.tol2bus.snoop_fanout::stdev           0.049504                       # Request fanout histogram
system.tol2bus.snoop_fanout::underflows             0      0.00%      0.00% # Request fanout histogram
system.tol2bus.snoop_fanout::0                      0      0.00%      0.00% # Request fanout histogram
system.tol2bus.snoop_fanout::1                      0      0.00%      0.00% # Request fanout histogram
system.tol2bus.snoop_fanout::2                      0      0.00%      0.00% # Request fanout histogram
system.tol2bus.snoop_fanout::3                      0      0.00%      0.00% # Request fanout histogram
system.tol2bus.snoop_fanout::4                      0      0.00%      0.00% # Request fanout histogram
system.tol2bus.snoop_fanout::5                      0      0.00%      0.00% # Request fanout histogram
system.tol2bus.snoop_fanout::6                      0      0.00%      0.00% # Request fanout histogram
system.tol2bus.snoop_fanout::7                      0      0.00%      0.00% # Request fanout histogram
system.tol2bus.snoop_fanout::8                      0      0.00%      0.00% # Request fanout histogram
system.tol2bus.snoop_fanout::9                      0      0.00%      0.00% # Request fanout histogram
system.tol2bus.snoop_fanout::10                     0      0.00%      0.00% # Request fanout histogram
system.tol2bus.snoop_fanout::11                     0      0.00%      0.00% # Request fanout histogram
system.tol2bus.snoop_fanout::12                     0      0.00%      0.00% # Request fanout histogram
system.tol2bus.snoop_fanout::13                     0      0.00%      0.00% # Request fanout histogram
system.tol2bus.snoop_fanout::14                     0      0.00%      0.00% # Request fanout histogram
system.tol2bus.snoop_fanout::15                     0      0.00%      0.00% # Request fanout histogram
system.tol2bus.snoop_fanout::16                     0      0.00%      0.00% # Request fanout histogram
system.tol2bus.snoop_fanout::17                     0      0.00%      0.00% # Request fanout histogram
system.tol2bus.snoop_fanout::18                     0      0.00%      0.00% # Request fanout histogram
system.tol2bus.snoop_fanout::19                     0      0.00%      0.00% # Request fanout histogram
system.tol2bus.snoop_fanout::20                     0      0.00%      0.00% # Request fanout histogram
system.tol2bus.snoop_fanout::21                     0      0.00%      0.00% # Request fanout histogram
system.tol2bus.snoop_fanout::22                     0      0.00%      0.00% # Request fanout histogram
system.tol2bus.snoop_fanout::23                     0      0.00%      0.00% # Request fanout histogram
system.tol2bus.snoop_fanout::24                     0      0.00%      0.00% # Request fanout histogram
system.tol2bus.snoop_fanout::25                     0      0.00%      0.00% # Request fanout histogram
system.tol2bus.snoop_fanout::26                     0      0.00%      0.00% # Request fanout histogram
system.tol2bus.snoop_fanout::27                     0      0.00%      0.00% # Request fanout histogram
system.tol2bus.snoop_fanout::28                     0      0.00%      0.00% # Request fanout histogram
system.tol2bus.snoop_fanout::29                     0      0.00%      0.00% # Request fanout histogram
system.tol2bus.snoop_fanout::30                     0      0.00%      0.00% # Request fanout histogram
system.tol2bus.snoop_fanout::31               2249130     99.75%     99.75% # Request fanout histogram
system.tol2bus.snoop_fanout::32                  5539      0.25%    100.00% # Request fanout histogram
system.tol2bus.snoop_fanout::overflows              0      0.00%    100.00% # Request fanout histogram
system.tol2bus.snoop_fanout::min_value             31                       # Request fanout histogram
system.tol2bus.snoop_fanout::max_value             32                       # Request fanout histogram
system.tol2bus.snoop_fanout::total            2254669                       # Request fanout histogram
system.tol2bus.reqLayer0.occupancy         1232603743                       # Layer occupancy (ticks)
system.tol2bus.reqLayer0.utilization             86.8                       # Layer utilization (%)
system.tol2bus.snoopLayer0.occupancy           152492                       # Layer occupancy (ticks)
system.tol2bus.snoopLayer0.utilization            0.0                       # Layer utilization (%)
system.tol2bus.respLayer0.occupancy           1099249                       # Layer occupancy (ticks)
system.tol2bus.respLayer0.utilization             0.1                       # Layer utilization (%)
system.tol2bus.respLayer1.occupancy         207140291                       # Layer occupancy (ticks)
system.tol2bus.respLayer1.utilization            14.6                       # Layer utilization (%)
system.tol2bus.respLayer4.occupancy             85713                       # Layer occupancy (ticks)
system.tol2bus.respLayer4.utilization             0.0                       # Layer utilization (%)
system.tol2bus.respLayer5.occupancy         200324293                       # Layer occupancy (ticks)
system.tol2bus.respLayer5.utilization            14.1                       # Layer utilization (%)
system.tol2bus.respLayer8.occupancy             86987                       # Layer occupancy (ticks)
system.tol2bus.respLayer8.utilization             0.0                       # Layer utilization (%)
system.tol2bus.respLayer9.occupancy         200344335                       # Layer occupancy (ticks)
system.tol2bus.respLayer9.utilization            14.1                       # Layer utilization (%)
system.tol2bus.respLayer12.occupancy            86954                       # Layer occupancy (ticks)
system.tol2bus.respLayer12.utilization            0.0                       # Layer utilization (%)
system.tol2bus.respLayer13.occupancy        200331308                       # Layer occupancy (ticks)
system.tol2bus.respLayer13.utilization           14.1                       # Layer utilization (%)
system.tol2bus.respLayer16.occupancy            83467                       # Layer occupancy (ticks)
system.tol2bus.respLayer16.utilization            0.0                       # Layer utilization (%)
system.tol2bus.respLayer17.occupancy        200347997                       # Layer occupancy (ticks)
system.tol2bus.respLayer17.utilization           14.1                       # Layer utilization (%)
system.tol2bus.respLayer20.occupancy            83720                       # Layer occupancy (ticks)
system.tol2bus.respLayer20.utilization            0.0                       # Layer utilization (%)
system.tol2bus.respLayer21.occupancy        200317374                       # Layer occupancy (ticks)
system.tol2bus.respLayer21.utilization           14.1                       # Layer utilization (%)
system.tol2bus.respLayer24.occupancy            83224                       # Layer occupancy (ticks)
system.tol2bus.respLayer24.utilization            0.0                       # Layer utilization (%)
system.tol2bus.respLayer25.occupancy        200396262                       # Layer occupancy (ticks)
system.tol2bus.respLayer25.utilization           14.1                       # Layer utilization (%)
system.tol2bus.respLayer28.occupancy            83731                       # Layer occupancy (ticks)
system.tol2bus.respLayer28.utilization            0.0                       # Layer utilization (%)
system.tol2bus.respLayer29.occupancy        200384908                       # Layer occupancy (ticks)
system.tol2bus.respLayer29.utilization           14.1                       # Layer utilization (%)
system.tol2bus.respLayer32.occupancy            82715                       # Layer occupancy (ticks)
system.tol2bus.respLayer32.utilization            0.0                       # Layer utilization (%)
system.tol2bus.respLayer33.occupancy        200318764                       # Layer occupancy (ticks)
system.tol2bus.respLayer33.utilization           14.1                       # Layer utilization (%)
system.tol2bus.respLayer36.occupancy            81247                       # Layer occupancy (ticks)
system.tol2bus.respLayer36.utilization            0.0                       # Layer utilization (%)
system.tol2bus.respLayer37.occupancy        200382532                       # Layer occupancy (ticks)
system.tol2bus.respLayer37.utilization           14.1                       # Layer utilization (%)
system.tol2bus.respLayer40.occupancy            85240                       # Layer occupancy (ticks)
system.tol2bus.respLayer40.utilization            0.0                       # Layer utilization (%)
system.tol2bus.respLayer41.occupancy        200425074                       # Layer occupancy (ticks)
system.tol2bus.respLayer41.utilization           14.1                       # Layer utilization (%)
system.tol2bus.respLayer44.occupancy            82247                       # Layer occupancy (ticks)
system.tol2bus.respLayer44.utilization            0.0                       # Layer utilization (%)
system.tol2bus.respLayer45.occupancy        200319630                       # Layer occupancy (ticks)
system.tol2bus.respLayer45.utilization           14.1                       # Layer utilization (%)
system.tol2bus.respLayer48.occupancy            86497                       # Layer occupancy (ticks)
system.tol2bus.respLayer48.utilization            0.0                       # Layer utilization (%)
system.tol2bus.respLayer49.occupancy        200355333                       # Layer occupancy (ticks)
system.tol2bus.respLayer49.utilization           14.1                       # Layer utilization (%)
system.tol2bus.respLayer52.occupancy            87236                       # Layer occupancy (ticks)
system.tol2bus.respLayer52.utilization            0.0                       # Layer utilization (%)
system.tol2bus.respLayer53.occupancy        200317817                       # Layer occupancy (ticks)
system.tol2bus.respLayer53.utilization           14.1                       # Layer utilization (%)
system.tol2bus.respLayer56.occupancy            87995                       # Layer occupancy (ticks)
system.tol2bus.respLayer56.utilization            0.0                       # Layer utilization (%)
system.tol2bus.respLayer57.occupancy        200311665                       # Layer occupancy (ticks)
system.tol2bus.respLayer57.utilization           14.1                       # Layer utilization (%)
system.tol2bus.respLayer60.occupancy            85247                       # Layer occupancy (ticks)
system.tol2bus.respLayer60.utilization            0.0                       # Layer utilization (%)
system.tol2bus.respLayer61.occupancy        200405914                       # Layer occupancy (ticks)
system.tol2bus.respLayer61.utilization           14.1                       # Layer utilization (%)

---------- End Simulation Statistics   ----------
