
---------- Begin Simulation Statistics ----------
sim_seconds                                  0.001494                       # Number of seconds simulated
sim_ticks                                  1493831000                       # Number of ticks simulated
final_tick                                 1493831000                       # Number of ticks from beginning of simulation (restored from checkpoints and never reset)
sim_freq                                 1000000000000                       # Frequency of simulated ticks
host_inst_rate                                 112227                       # Simulator instruction rate (inst/s)
host_op_rate                                   112820                       # Simulator op (including micro ops) rate (op/s)
host_tick_rate                                4508352                       # Simulator tick rate (ticks/s)
host_mem_usage                                 741156                       # Number of bytes of host memory used
host_seconds                                   331.35                       # Real time elapsed on the host
sim_insts                                    37186026                       # Number of instructions simulated
sim_ops                                      37382563                       # Number of ops (including micro ops) simulated
system.voltage_domain.voltage                       1                       # Voltage in Volts
system.clk_domain.clock                          1000                       # Clock period in ticks
system.mem_ctrls.bytes_read::cpu00.inst         31872                       # Number of bytes read from this memory
system.mem_ctrls.bytes_read::cpu00.data        289856                       # Number of bytes read from this memory
system.mem_ctrls.bytes_read::cpu01.inst          1152                       # Number of bytes read from this memory
system.mem_ctrls.bytes_read::cpu01.data          9088                       # Number of bytes read from this memory
system.mem_ctrls.bytes_read::cpu02.inst           192                       # Number of bytes read from this memory
system.mem_ctrls.bytes_read::cpu02.data          8576                       # Number of bytes read from this memory
system.mem_ctrls.bytes_read::cpu03.inst           320                       # Number of bytes read from this memory
system.mem_ctrls.bytes_read::cpu03.data          8512                       # Number of bytes read from this memory
system.mem_ctrls.bytes_read::cpu04.inst            64                       # Number of bytes read from this memory
system.mem_ctrls.bytes_read::cpu04.data          8448                       # Number of bytes read from this memory
system.mem_ctrls.bytes_read::cpu05.inst           128                       # Number of bytes read from this memory
system.mem_ctrls.bytes_read::cpu05.data          8448                       # Number of bytes read from this memory
system.mem_ctrls.bytes_read::cpu06.data          8448                       # Number of bytes read from this memory
system.mem_ctrls.bytes_read::cpu07.inst           128                       # Number of bytes read from this memory
system.mem_ctrls.bytes_read::cpu07.data          8512                       # Number of bytes read from this memory
system.mem_ctrls.bytes_read::cpu08.inst           192                       # Number of bytes read from this memory
system.mem_ctrls.bytes_read::cpu08.data          8512                       # Number of bytes read from this memory
system.mem_ctrls.bytes_read::cpu09.data          8576                       # Number of bytes read from this memory
system.mem_ctrls.bytes_read::cpu10.data          8448                       # Number of bytes read from this memory
system.mem_ctrls.bytes_read::cpu11.inst           192                       # Number of bytes read from this memory
system.mem_ctrls.bytes_read::cpu11.data          8512                       # Number of bytes read from this memory
system.mem_ctrls.bytes_read::cpu12.inst           128                       # Number of bytes read from this memory
system.mem_ctrls.bytes_read::cpu12.data          8448                       # Number of bytes read from this memory
system.mem_ctrls.bytes_read::cpu13.data          8512                       # Number of bytes read from this memory
system.mem_ctrls.bytes_read::cpu14.data          8448                       # Number of bytes read from this memory
system.mem_ctrls.bytes_read::cpu15.inst           128                       # Number of bytes read from this memory
system.mem_ctrls.bytes_read::cpu15.data          8704                       # Number of bytes read from this memory
system.mem_ctrls.bytes_read::total             452544                       # Number of bytes read from this memory
system.mem_ctrls.bytes_inst_read::cpu00.inst        31872                       # Number of instructions bytes read from this memory
system.mem_ctrls.bytes_inst_read::cpu01.inst         1152                       # Number of instructions bytes read from this memory
system.mem_ctrls.bytes_inst_read::cpu02.inst          192                       # Number of instructions bytes read from this memory
system.mem_ctrls.bytes_inst_read::cpu03.inst          320                       # Number of instructions bytes read from this memory
system.mem_ctrls.bytes_inst_read::cpu04.inst           64                       # Number of instructions bytes read from this memory
system.mem_ctrls.bytes_inst_read::cpu05.inst          128                       # Number of instructions bytes read from this memory
system.mem_ctrls.bytes_inst_read::cpu07.inst          128                       # Number of instructions bytes read from this memory
system.mem_ctrls.bytes_inst_read::cpu08.inst          192                       # Number of instructions bytes read from this memory
system.mem_ctrls.bytes_inst_read::cpu11.inst          192                       # Number of instructions bytes read from this memory
system.mem_ctrls.bytes_inst_read::cpu12.inst          128                       # Number of instructions bytes read from this memory
system.mem_ctrls.bytes_inst_read::cpu15.inst          128                       # Number of instructions bytes read from this memory
system.mem_ctrls.bytes_inst_read::total         34496                       # Number of instructions bytes read from this memory
system.mem_ctrls.bytes_written::writebacks         1216                       # Number of bytes written to this memory
system.mem_ctrls.bytes_written::total            1216                       # Number of bytes written to this memory
system.mem_ctrls.num_reads::cpu00.inst            498                       # Number of read requests responded to by this memory
system.mem_ctrls.num_reads::cpu00.data           4529                       # Number of read requests responded to by this memory
system.mem_ctrls.num_reads::cpu01.inst             18                       # Number of read requests responded to by this memory
system.mem_ctrls.num_reads::cpu01.data            142                       # Number of read requests responded to by this memory
system.mem_ctrls.num_reads::cpu02.inst              3                       # Number of read requests responded to by this memory
system.mem_ctrls.num_reads::cpu02.data            134                       # Number of read requests responded to by this memory
system.mem_ctrls.num_reads::cpu03.inst              5                       # Number of read requests responded to by this memory
system.mem_ctrls.num_reads::cpu03.data            133                       # Number of read requests responded to by this memory
system.mem_ctrls.num_reads::cpu04.inst              1                       # Number of read requests responded to by this memory
system.mem_ctrls.num_reads::cpu04.data            132                       # Number of read requests responded to by this memory
system.mem_ctrls.num_reads::cpu05.inst              2                       # Number of read requests responded to by this memory
system.mem_ctrls.num_reads::cpu05.data            132                       # Number of read requests responded to by this memory
system.mem_ctrls.num_reads::cpu06.data            132                       # Number of read requests responded to by this memory
system.mem_ctrls.num_reads::cpu07.inst              2                       # Number of read requests responded to by this memory
system.mem_ctrls.num_reads::cpu07.data            133                       # Number of read requests responded to by this memory
system.mem_ctrls.num_reads::cpu08.inst              3                       # Number of read requests responded to by this memory
system.mem_ctrls.num_reads::cpu08.data            133                       # Number of read requests responded to by this memory
system.mem_ctrls.num_reads::cpu09.data            134                       # Number of read requests responded to by this memory
system.mem_ctrls.num_reads::cpu10.data            132                       # Number of read requests responded to by this memory
system.mem_ctrls.num_reads::cpu11.inst              3                       # Number of read requests responded to by this memory
system.mem_ctrls.num_reads::cpu11.data            133                       # Number of read requests responded to by this memory
system.mem_ctrls.num_reads::cpu12.inst              2                       # Number of read requests responded to by this memory
system.mem_ctrls.num_reads::cpu12.data            132                       # Number of read requests responded to by this memory
system.mem_ctrls.num_reads::cpu13.data            133                       # Number of read requests responded to by this memory
system.mem_ctrls.num_reads::cpu14.data            132                       # Number of read requests responded to by this memory
system.mem_ctrls.num_reads::cpu15.inst              2                       # Number of read requests responded to by this memory
system.mem_ctrls.num_reads::cpu15.data            136                       # Number of read requests responded to by this memory
system.mem_ctrls.num_reads::total                7071                       # Number of read requests responded to by this memory
system.mem_ctrls.num_writes::writebacks            19                       # Number of write requests responded to by this memory
system.mem_ctrls.num_writes::total                 19                       # Number of write requests responded to by this memory
system.mem_ctrls.bw_read::cpu00.inst         21335747                       # Total read bandwidth from this memory (bytes/s)
system.mem_ctrls.bw_read::cpu00.data        194035336                       # Total read bandwidth from this memory (bytes/s)
system.mem_ctrls.bw_read::cpu01.inst           771172                       # Total read bandwidth from this memory (bytes/s)
system.mem_ctrls.bw_read::cpu01.data          6083687                       # Total read bandwidth from this memory (bytes/s)
system.mem_ctrls.bw_read::cpu02.inst           128529                       # Total read bandwidth from this memory (bytes/s)
system.mem_ctrls.bw_read::cpu02.data          5740944                       # Total read bandwidth from this memory (bytes/s)
system.mem_ctrls.bw_read::cpu03.inst           214214                       # Total read bandwidth from this memory (bytes/s)
system.mem_ctrls.bw_read::cpu03.data          5698101                       # Total read bandwidth from this memory (bytes/s)
system.mem_ctrls.bw_read::cpu04.inst            42843                       # Total read bandwidth from this memory (bytes/s)
system.mem_ctrls.bw_read::cpu04.data          5655258                       # Total read bandwidth from this memory (bytes/s)
system.mem_ctrls.bw_read::cpu05.inst            85686                       # Total read bandwidth from this memory (bytes/s)
system.mem_ctrls.bw_read::cpu05.data          5655258                       # Total read bandwidth from this memory (bytes/s)
system.mem_ctrls.bw_read::cpu06.data          5655258                       # Total read bandwidth from this memory (bytes/s)
system.mem_ctrls.bw_read::cpu07.inst            85686                       # Total read bandwidth from this memory (bytes/s)
system.mem_ctrls.bw_read::cpu07.data          5698101                       # Total read bandwidth from this memory (bytes/s)
system.mem_ctrls.bw_read::cpu08.inst           128529                       # Total read bandwidth from this memory (bytes/s)
system.mem_ctrls.bw_read::cpu08.data          5698101                       # Total read bandwidth from this memory (bytes/s)
system.mem_ctrls.bw_read::cpu09.data          5740944                       # Total read bandwidth from this memory (bytes/s)
system.mem_ctrls.bw_read::cpu10.data          5655258                       # Total read bandwidth from this memory (bytes/s)
system.mem_ctrls.bw_read::cpu11.inst           128529                       # Total read bandwidth from this memory (bytes/s)
system.mem_ctrls.bw_read::cpu11.data          5698101                       # Total read bandwidth from this memory (bytes/s)
system.mem_ctrls.bw_read::cpu12.inst            85686                       # Total read bandwidth from this memory (bytes/s)
system.mem_ctrls.bw_read::cpu12.data          5655258                       # Total read bandwidth from this memory (bytes/s)
system.mem_ctrls.bw_read::cpu13.data          5698101                       # Total read bandwidth from this memory (bytes/s)
system.mem_ctrls.bw_read::cpu14.data          5655258                       # Total read bandwidth from this memory (bytes/s)
system.mem_ctrls.bw_read::cpu15.inst            85686                       # Total read bandwidth from this memory (bytes/s)
system.mem_ctrls.bw_read::cpu15.data          5826630                       # Total read bandwidth from this memory (bytes/s)
system.mem_ctrls.bw_read::total             302941899                       # Total read bandwidth from this memory (bytes/s)
system.mem_ctrls.bw_inst_read::cpu00.inst     21335747                       # Instruction read bandwidth from this memory (bytes/s)
system.mem_ctrls.bw_inst_read::cpu01.inst       771172                       # Instruction read bandwidth from this memory (bytes/s)
system.mem_ctrls.bw_inst_read::cpu02.inst       128529                       # Instruction read bandwidth from this memory (bytes/s)
system.mem_ctrls.bw_inst_read::cpu03.inst       214214                       # Instruction read bandwidth from this memory (bytes/s)
system.mem_ctrls.bw_inst_read::cpu04.inst        42843                       # Instruction read bandwidth from this memory (bytes/s)
system.mem_ctrls.bw_inst_read::cpu05.inst        85686                       # Instruction read bandwidth from this memory (bytes/s)
system.mem_ctrls.bw_inst_read::cpu07.inst        85686                       # Instruction read bandwidth from this memory (bytes/s)
system.mem_ctrls.bw_inst_read::cpu08.inst       128529                       # Instruction read bandwidth from this memory (bytes/s)
system.mem_ctrls.bw_inst_read::cpu11.inst       128529                       # Instruction read bandwidth from this memory (bytes/s)
system.mem_ctrls.bw_inst_read::cpu12.inst        85686                       # Instruction read bandwidth from this memory (bytes/s)
system.mem_ctrls.bw_inst_read::cpu15.inst        85686                       # Instruction read bandwidth from this memory (bytes/s)
system.mem_ctrls.bw_inst_read::total         23092304                       # Instruction read bandwidth from this memory (bytes/s)
system.mem_ctrls.bw_write::writebacks          814014                       # Write bandwidth from this memory (bytes/s)
system.mem_ctrls.bw_write::total               814014                       # Write bandwidth from this memory (bytes/s)
system.mem_ctrls.bw_total::writebacks          814014                       # Total bandwidth to/from this memory (bytes/s)
system.mem_ctrls.bw_total::cpu00.inst        21335747                       # Total bandwidth to/from this memory (bytes/s)
system.mem_ctrls.bw_total::cpu00.data       194035336                       # Total bandwidth to/from this memory (bytes/s)
system.mem_ctrls.bw_total::cpu01.inst          771172                       # Total bandwidth to/from this memory (bytes/s)
system.mem_ctrls.bw_total::cpu01.data         6083687                       # Total bandwidth to/from this memory (bytes/s)
system.mem_ctrls.bw_total::cpu02.inst          128529                       # Total bandwidth to/from this memory (bytes/s)
system.mem_ctrls.bw_total::cpu02.data         5740944                       # Total bandwidth to/from this memory (bytes/s)
system.mem_ctrls.bw_total::cpu03.inst          214214                       # Total bandwidth to/from this memory (bytes/s)
system.mem_ctrls.bw_total::cpu03.data         5698101                       # Total bandwidth to/from this memory (bytes/s)
system.mem_ctrls.bw_total::cpu04.inst           42843                       # Total bandwidth to/from this memory (bytes/s)
system.mem_ctrls.bw_total::cpu04.data         5655258                       # Total bandwidth to/from this memory (bytes/s)
system.mem_ctrls.bw_total::cpu05.inst           85686                       # Total bandwidth to/from this memory (bytes/s)
system.mem_ctrls.bw_total::cpu05.data         5655258                       # Total bandwidth to/from this memory (bytes/s)
system.mem_ctrls.bw_total::cpu06.data         5655258                       # Total bandwidth to/from this memory (bytes/s)
system.mem_ctrls.bw_total::cpu07.inst           85686                       # Total bandwidth to/from this memory (bytes/s)
system.mem_ctrls.bw_total::cpu07.data         5698101                       # Total bandwidth to/from this memory (bytes/s)
system.mem_ctrls.bw_total::cpu08.inst          128529                       # Total bandwidth to/from this memory (bytes/s)
system.mem_ctrls.bw_total::cpu08.data         5698101                       # Total bandwidth to/from this memory (bytes/s)
system.mem_ctrls.bw_total::cpu09.data         5740944                       # Total bandwidth to/from this memory (bytes/s)
system.mem_ctrls.bw_total::cpu10.data         5655258                       # Total bandwidth to/from this memory (bytes/s)
system.mem_ctrls.bw_total::cpu11.inst          128529                       # Total bandwidth to/from this memory (bytes/s)
system.mem_ctrls.bw_total::cpu11.data         5698101                       # Total bandwidth to/from this memory (bytes/s)
system.mem_ctrls.bw_total::cpu12.inst           85686                       # Total bandwidth to/from this memory (bytes/s)
system.mem_ctrls.bw_total::cpu12.data         5655258                       # Total bandwidth to/from this memory (bytes/s)
system.mem_ctrls.bw_total::cpu13.data         5698101                       # Total bandwidth to/from this memory (bytes/s)
system.mem_ctrls.bw_total::cpu14.data         5655258                       # Total bandwidth to/from this memory (bytes/s)
system.mem_ctrls.bw_total::cpu15.inst           85686                       # Total bandwidth to/from this memory (bytes/s)
system.mem_ctrls.bw_total::cpu15.data         5826630                       # Total bandwidth to/from this memory (bytes/s)
system.mem_ctrls.bw_total::total            303755913                       # Total bandwidth to/from this memory (bytes/s)
system.mem_ctrls.readReqs                        7071                       # Number of read requests accepted
system.mem_ctrls.writeReqs                         19                       # Number of write requests accepted
system.mem_ctrls.readBursts                      7071                       # Number of DRAM read bursts, including those serviced by the write queue
system.mem_ctrls.writeBursts                       19                       # Number of DRAM write bursts, including those merged in the write queue
system.mem_ctrls.bytesReadDRAM                 451584                       # Total number of bytes read from DRAM
system.mem_ctrls.bytesReadWrQ                     960                       # Total number of bytes read from write queue
system.mem_ctrls.bytesWritten                       0                       # Total number of bytes written to DRAM
system.mem_ctrls.bytesReadSys                  452544                       # Total read bytes from the system interface side
system.mem_ctrls.bytesWrittenSys                 1216                       # Total written bytes from the system interface side
system.mem_ctrls.servicedByWrQ                     15                       # Number of DRAM read bursts serviced by the write queue
system.mem_ctrls.mergedWrBursts                     0                       # Number of DRAM write bursts merged with an existing one
system.mem_ctrls.neitherReadNorWriteReqs            9                       # Number of requests that are neither read nor write
system.mem_ctrls.perBankRdBursts::0               506                       # Per bank write bursts
system.mem_ctrls.perBankRdBursts::1               518                       # Per bank write bursts
system.mem_ctrls.perBankRdBursts::2               518                       # Per bank write bursts
system.mem_ctrls.perBankRdBursts::3               486                       # Per bank write bursts
system.mem_ctrls.perBankRdBursts::4               417                       # Per bank write bursts
system.mem_ctrls.perBankRdBursts::5               492                       # Per bank write bursts
system.mem_ctrls.perBankRdBursts::6               465                       # Per bank write bursts
system.mem_ctrls.perBankRdBursts::7               415                       # Per bank write bursts
system.mem_ctrls.perBankRdBursts::8               399                       # Per bank write bursts
system.mem_ctrls.perBankRdBursts::9               394                       # Per bank write bursts
system.mem_ctrls.perBankRdBursts::10              384                       # Per bank write bursts
system.mem_ctrls.perBankRdBursts::11              396                       # Per bank write bursts
system.mem_ctrls.perBankRdBursts::12              390                       # Per bank write bursts
system.mem_ctrls.perBankRdBursts::13              417                       # Per bank write bursts
system.mem_ctrls.perBankRdBursts::14              422                       # Per bank write bursts
system.mem_ctrls.perBankRdBursts::15              437                       # Per bank write bursts
system.mem_ctrls.perBankWrBursts::0                 0                       # Per bank write bursts
system.mem_ctrls.perBankWrBursts::1                 0                       # Per bank write bursts
system.mem_ctrls.perBankWrBursts::2                 0                       # Per bank write bursts
system.mem_ctrls.perBankWrBursts::3                 0                       # Per bank write bursts
system.mem_ctrls.perBankWrBursts::4                 0                       # Per bank write bursts
system.mem_ctrls.perBankWrBursts::5                 0                       # Per bank write bursts
system.mem_ctrls.perBankWrBursts::6                 0                       # Per bank write bursts
system.mem_ctrls.perBankWrBursts::7                 0                       # Per bank write bursts
system.mem_ctrls.perBankWrBursts::8                 0                       # Per bank write bursts
system.mem_ctrls.perBankWrBursts::9                 0                       # Per bank write bursts
system.mem_ctrls.perBankWrBursts::10                0                       # Per bank write bursts
system.mem_ctrls.perBankWrBursts::11                0                       # Per bank write bursts
system.mem_ctrls.perBankWrBursts::12                0                       # Per bank write bursts
system.mem_ctrls.perBankWrBursts::13                0                       # Per bank write bursts
system.mem_ctrls.perBankWrBursts::14                0                       # Per bank write bursts
system.mem_ctrls.perBankWrBursts::15                0                       # Per bank write bursts
system.mem_ctrls.numRdRetry                         0                       # Number of times read queue was full causing retry
system.mem_ctrls.numWrRetry                         0                       # Number of times write queue was full causing retry
system.mem_ctrls.totGap                    1493791000                       # Total gap between requests
system.mem_ctrls.readPktSize::0                     0                       # Read request sizes (log2)
system.mem_ctrls.readPktSize::1                     0                       # Read request sizes (log2)
system.mem_ctrls.readPktSize::2                     0                       # Read request sizes (log2)
system.mem_ctrls.readPktSize::3                     0                       # Read request sizes (log2)
system.mem_ctrls.readPktSize::4                     0                       # Read request sizes (log2)
system.mem_ctrls.readPktSize::5                     0                       # Read request sizes (log2)
system.mem_ctrls.readPktSize::6                  7071                       # Read request sizes (log2)
system.mem_ctrls.writePktSize::0                    0                       # Write request sizes (log2)
system.mem_ctrls.writePktSize::1                    0                       # Write request sizes (log2)
system.mem_ctrls.writePktSize::2                    0                       # Write request sizes (log2)
system.mem_ctrls.writePktSize::3                    0                       # Write request sizes (log2)
system.mem_ctrls.writePktSize::4                    0                       # Write request sizes (log2)
system.mem_ctrls.writePktSize::5                    0                       # Write request sizes (log2)
system.mem_ctrls.writePktSize::6                   19                       # Write request sizes (log2)
system.mem_ctrls.rdQLenPdf::0                    3627                       # What read queue length does an incoming req see
system.mem_ctrls.rdQLenPdf::1                    2883                       # What read queue length does an incoming req see
system.mem_ctrls.rdQLenPdf::2                     362                       # What read queue length does an incoming req see
system.mem_ctrls.rdQLenPdf::3                      93                       # What read queue length does an incoming req see
system.mem_ctrls.rdQLenPdf::4                      33                       # What read queue length does an incoming req see
system.mem_ctrls.rdQLenPdf::5                      15                       # What read queue length does an incoming req see
system.mem_ctrls.rdQLenPdf::6                      14                       # What read queue length does an incoming req see
system.mem_ctrls.rdQLenPdf::7                       9                       # What read queue length does an incoming req see
system.mem_ctrls.rdQLenPdf::8                       7                       # What read queue length does an incoming req see
system.mem_ctrls.rdQLenPdf::9                       3                       # What read queue length does an incoming req see
system.mem_ctrls.rdQLenPdf::10                      3                       # What read queue length does an incoming req see
system.mem_ctrls.rdQLenPdf::11                      4                       # What read queue length does an incoming req see
system.mem_ctrls.rdQLenPdf::12                      1                       # What read queue length does an incoming req see
system.mem_ctrls.rdQLenPdf::13                      1                       # What read queue length does an incoming req see
system.mem_ctrls.rdQLenPdf::14                      1                       # What read queue length does an incoming req see
system.mem_ctrls.rdQLenPdf::15                      0                       # What read queue length does an incoming req see
system.mem_ctrls.rdQLenPdf::16                      0                       # What read queue length does an incoming req see
system.mem_ctrls.rdQLenPdf::17                      0                       # What read queue length does an incoming req see
system.mem_ctrls.rdQLenPdf::18                      0                       # What read queue length does an incoming req see
system.mem_ctrls.rdQLenPdf::19                      0                       # What read queue length does an incoming req see
system.mem_ctrls.rdQLenPdf::20                      0                       # What read queue length does an incoming req see
system.mem_ctrls.rdQLenPdf::21                      0                       # What read queue length does an incoming req see
system.mem_ctrls.rdQLenPdf::22                      0                       # What read queue length does an incoming req see
system.mem_ctrls.rdQLenPdf::23                      0                       # What read queue length does an incoming req see
system.mem_ctrls.rdQLenPdf::24                      0                       # What read queue length does an incoming req see
system.mem_ctrls.rdQLenPdf::25                      0                       # What read queue length does an incoming req see
system.mem_ctrls.rdQLenPdf::26                      0                       # What read queue length does an incoming req see
system.mem_ctrls.rdQLenPdf::27                      0                       # What read queue length does an incoming req see
system.mem_ctrls.rdQLenPdf::28                      0                       # What read queue length does an incoming req see
system.mem_ctrls.rdQLenPdf::29                      0                       # What read queue length does an incoming req see
system.mem_ctrls.rdQLenPdf::30                      0                       # What read queue length does an incoming req see
system.mem_ctrls.rdQLenPdf::31                      0                       # What read queue length does an incoming req see
system.mem_ctrls.wrQLenPdf::0                       1                       # What write queue length does an incoming req see
system.mem_ctrls.wrQLenPdf::1                       1                       # What write queue length does an incoming req see
system.mem_ctrls.wrQLenPdf::2                       1                       # What write queue length does an incoming req see
system.mem_ctrls.wrQLenPdf::3                       1                       # What write queue length does an incoming req see
system.mem_ctrls.wrQLenPdf::4                       1                       # What write queue length does an incoming req see
system.mem_ctrls.wrQLenPdf::5                       1                       # What write queue length does an incoming req see
system.mem_ctrls.wrQLenPdf::6                       1                       # What write queue length does an incoming req see
system.mem_ctrls.wrQLenPdf::7                       1                       # What write queue length does an incoming req see
system.mem_ctrls.wrQLenPdf::8                       1                       # What write queue length does an incoming req see
system.mem_ctrls.wrQLenPdf::9                       1                       # What write queue length does an incoming req see
system.mem_ctrls.wrQLenPdf::10                      1                       # What write queue length does an incoming req see
system.mem_ctrls.wrQLenPdf::11                      1                       # What write queue length does an incoming req see
system.mem_ctrls.wrQLenPdf::12                      1                       # What write queue length does an incoming req see
system.mem_ctrls.wrQLenPdf::13                      1                       # What write queue length does an incoming req see
system.mem_ctrls.wrQLenPdf::14                      1                       # What write queue length does an incoming req see
system.mem_ctrls.wrQLenPdf::15                      1                       # What write queue length does an incoming req see
system.mem_ctrls.wrQLenPdf::16                      1                       # What write queue length does an incoming req see
system.mem_ctrls.wrQLenPdf::17                      1                       # What write queue length does an incoming req see
system.mem_ctrls.wrQLenPdf::18                      1                       # What write queue length does an incoming req see
system.mem_ctrls.wrQLenPdf::19                      0                       # What write queue length does an incoming req see
system.mem_ctrls.wrQLenPdf::20                      0                       # What write queue length does an incoming req see
system.mem_ctrls.wrQLenPdf::21                      0                       # What write queue length does an incoming req see
system.mem_ctrls.wrQLenPdf::22                      0                       # What write queue length does an incoming req see
system.mem_ctrls.wrQLenPdf::23                      0                       # What write queue length does an incoming req see
system.mem_ctrls.wrQLenPdf::24                      0                       # What write queue length does an incoming req see
system.mem_ctrls.wrQLenPdf::25                      0                       # What write queue length does an incoming req see
system.mem_ctrls.wrQLenPdf::26                      0                       # What write queue length does an incoming req see
system.mem_ctrls.wrQLenPdf::27                      0                       # What write queue length does an incoming req see
system.mem_ctrls.wrQLenPdf::28                      0                       # What write queue length does an incoming req see
system.mem_ctrls.wrQLenPdf::29                      0                       # What write queue length does an incoming req see
system.mem_ctrls.wrQLenPdf::30                      0                       # What write queue length does an incoming req see
system.mem_ctrls.wrQLenPdf::31                      0                       # What write queue length does an incoming req see
system.mem_ctrls.wrQLenPdf::32                      0                       # What write queue length does an incoming req see
system.mem_ctrls.wrQLenPdf::33                      0                       # What write queue length does an incoming req see
system.mem_ctrls.wrQLenPdf::34                      0                       # What write queue length does an incoming req see
system.mem_ctrls.wrQLenPdf::35                      0                       # What write queue length does an incoming req see
system.mem_ctrls.wrQLenPdf::36                      0                       # What write queue length does an incoming req see
system.mem_ctrls.wrQLenPdf::37                      0                       # What write queue length does an incoming req see
system.mem_ctrls.wrQLenPdf::38                      0                       # What write queue length does an incoming req see
system.mem_ctrls.wrQLenPdf::39                      0                       # What write queue length does an incoming req see
system.mem_ctrls.wrQLenPdf::40                      0                       # What write queue length does an incoming req see
system.mem_ctrls.wrQLenPdf::41                      0                       # What write queue length does an incoming req see
system.mem_ctrls.wrQLenPdf::42                      0                       # What write queue length does an incoming req see
system.mem_ctrls.wrQLenPdf::43                      0                       # What write queue length does an incoming req see
system.mem_ctrls.wrQLenPdf::44                      0                       # What write queue length does an incoming req see
system.mem_ctrls.wrQLenPdf::45                      0                       # What write queue length does an incoming req see
system.mem_ctrls.wrQLenPdf::46                      0                       # What write queue length does an incoming req see
system.mem_ctrls.wrQLenPdf::47                      0                       # What write queue length does an incoming req see
system.mem_ctrls.wrQLenPdf::48                      0                       # What write queue length does an incoming req see
system.mem_ctrls.wrQLenPdf::49                      0                       # What write queue length does an incoming req see
system.mem_ctrls.wrQLenPdf::50                      0                       # What write queue length does an incoming req see
system.mem_ctrls.wrQLenPdf::51                      0                       # What write queue length does an incoming req see
system.mem_ctrls.wrQLenPdf::52                      0                       # What write queue length does an incoming req see
system.mem_ctrls.wrQLenPdf::53                      0                       # What write queue length does an incoming req see
system.mem_ctrls.wrQLenPdf::54                      0                       # What write queue length does an incoming req see
system.mem_ctrls.wrQLenPdf::55                      0                       # What write queue length does an incoming req see
system.mem_ctrls.wrQLenPdf::56                      0                       # What write queue length does an incoming req see
system.mem_ctrls.wrQLenPdf::57                      0                       # What write queue length does an incoming req see
system.mem_ctrls.wrQLenPdf::58                      0                       # What write queue length does an incoming req see
system.mem_ctrls.wrQLenPdf::59                      0                       # What write queue length does an incoming req see
system.mem_ctrls.wrQLenPdf::60                      0                       # What write queue length does an incoming req see
system.mem_ctrls.wrQLenPdf::61                      0                       # What write queue length does an incoming req see
system.mem_ctrls.wrQLenPdf::62                      0                       # What write queue length does an incoming req see
system.mem_ctrls.wrQLenPdf::63                      0                       # What write queue length does an incoming req see
system.mem_ctrls.bytesPerActivate::samples         2585                       # Bytes accessed per row activation
system.mem_ctrls.bytesPerActivate::mean    174.025532                       # Bytes accessed per row activation
system.mem_ctrls.bytesPerActivate::gmean    91.623407                       # Bytes accessed per row activation
system.mem_ctrls.bytesPerActivate::stdev   291.702658                       # Bytes accessed per row activation
system.mem_ctrls.bytesPerActivate::0-127         2173     84.06%     84.06% # Bytes accessed per row activation
system.mem_ctrls.bytesPerActivate::128-255           70      2.71%     86.77% # Bytes accessed per row activation
system.mem_ctrls.bytesPerActivate::256-383           35      1.35%     88.12% # Bytes accessed per row activation
system.mem_ctrls.bytesPerActivate::384-511           15      0.58%     88.70% # Bytes accessed per row activation
system.mem_ctrls.bytesPerActivate::512-639           12      0.46%     89.17% # Bytes accessed per row activation
system.mem_ctrls.bytesPerActivate::640-767           16      0.62%     89.79% # Bytes accessed per row activation
system.mem_ctrls.bytesPerActivate::768-895            7      0.27%     90.06% # Bytes accessed per row activation
system.mem_ctrls.bytesPerActivate::896-1023            7      0.27%     90.33% # Bytes accessed per row activation
system.mem_ctrls.bytesPerActivate::1024-1151          250      9.67%    100.00% # Bytes accessed per row activation
system.mem_ctrls.bytesPerActivate::total         2585                       # Bytes accessed per row activation
system.mem_ctrls.totQLat                     76313000                       # Total ticks spent queuing
system.mem_ctrls.totMemAccLat               208613000                       # Total ticks spent from burst creation until serviced by the DRAM
system.mem_ctrls.totBusLat                   35280000                       # Total ticks spent in databus transfers
system.mem_ctrls.avgQLat                     10815.33                       # Average queueing delay per DRAM burst
system.mem_ctrls.avgBusLat                    5000.00                       # Average bus latency per DRAM burst
system.mem_ctrls.avgMemAccLat                29565.33                       # Average memory access latency per DRAM burst
system.mem_ctrls.avgRdBW                       302.30                       # Average DRAM read bandwidth in MiByte/s
system.mem_ctrls.avgWrBW                         0.00                       # Average achieved write bandwidth in MiByte/s
system.mem_ctrls.avgRdBWSys                    302.94                       # Average system read bandwidth in MiByte/s
system.mem_ctrls.avgWrBWSys                      0.81                       # Average system write bandwidth in MiByte/s
system.mem_ctrls.peakBW                      12800.00                       # Theoretical peak bandwidth in MiByte/s
system.mem_ctrls.busUtil                         2.36                       # Data bus utilization in percentage
system.mem_ctrls.busUtilRead                     2.36                       # Data bus utilization in percentage for reads
system.mem_ctrls.busUtilWrite                    0.00                       # Data bus utilization in percentage for writes
system.mem_ctrls.avgRdQLen                       1.45                       # Average read queue length when enqueuing
system.mem_ctrls.avgWrQLen                      10.80                       # Average write queue length when enqueuing
system.mem_ctrls.readRowHits                     4460                       # Number of row buffer hits during reads
system.mem_ctrls.writeRowHits                       0                       # Number of row buffer hits during writes
system.mem_ctrls.readRowHitRate                 63.21                       # Row buffer hit rate for reads
system.mem_ctrls.writeRowHitRate                 0.00                       # Row buffer hit rate for writes
system.mem_ctrls.avgGap                     210689.84                       # Average gap between requests
system.mem_ctrls.pageHitRate                    63.04                       # Row buffer hit rate, read and write combined
system.mem_ctrls_0.actEnergy                 10515960                       # Energy for activate commands per rank (pJ)
system.mem_ctrls_0.preEnergy                  5737875                       # Energy for precharge commands per rank (pJ)
system.mem_ctrls_0.readEnergy                29647800                       # Energy for read commands per rank (pJ)
system.mem_ctrls_0.writeEnergy                      0                       # Energy for write commands per rank (pJ)
system.mem_ctrls_0.refreshEnergy             97134960                       # Energy for refresh commands per rank (pJ)
system.mem_ctrls_0.actBackEnergy            567136035                       # Energy for active background per rank (pJ)
system.mem_ctrls_0.preBackEnergy            394972500                       # Energy for precharge background per rank (pJ)
system.mem_ctrls_0.totalEnergy             1105145130                       # Total energy per rank (pJ)
system.mem_ctrls_0.averagePower            742.987800                       # Core power per rank (mW)
system.mem_ctrls_0.memoryStateTime::IDLE    652534750                       # Time in different power states
system.mem_ctrls_0.memoryStateTime::REF      49660000                       # Time in different power states
system.mem_ctrls_0.memoryStateTime::PRE_PDN            0                       # Time in different power states
system.mem_ctrls_0.memoryStateTime::ACT     785252750                       # Time in different power states
system.mem_ctrls_0.memoryStateTime::ACT_PDN            0                       # Time in different power states
system.mem_ctrls_1.actEnergy                  8973720                       # Energy for activate commands per rank (pJ)
system.mem_ctrls_1.preEnergy                  4896375                       # Energy for precharge commands per rank (pJ)
system.mem_ctrls_1.readEnergy                24983400                       # Energy for read commands per rank (pJ)
system.mem_ctrls_1.writeEnergy                      0                       # Energy for write commands per rank (pJ)
system.mem_ctrls_1.refreshEnergy             97134960                       # Energy for refresh commands per rank (pJ)
system.mem_ctrls_1.actBackEnergy            488790675                       # Energy for active background per rank (pJ)
system.mem_ctrls_1.preBackEnergy            463688250                       # Energy for precharge background per rank (pJ)
system.mem_ctrls_1.totalEnergy             1088467380                       # Total energy per rank (pJ)
system.mem_ctrls_1.averagePower            731.782133                       # Core power per rank (mW)
system.mem_ctrls_1.memoryStateTime::IDLE    771634750                       # Time in different power states
system.mem_ctrls_1.memoryStateTime::REF      49660000                       # Time in different power states
system.mem_ctrls_1.memoryStateTime::PRE_PDN            0                       # Time in different power states
system.mem_ctrls_1.memoryStateTime::ACT     670475750                       # Time in different power states
system.mem_ctrls_1.memoryStateTime::ACT_PDN            0                       # Time in different power states
system.cpu00.branchPred.lookups                177874                       # Number of BP lookups
system.cpu00.branchPred.condPredicted          175470                       # Number of conditional branches predicted
system.cpu00.branchPred.condIncorrect            2242                       # Number of conditional branches incorrect
system.cpu00.branchPred.BTBLookups             175417                       # Number of BTB lookups
system.cpu00.branchPred.BTBHits                172208                       # Number of BTB hits
system.cpu00.branchPred.BTBCorrect                  0                       # Number of correct BTB predictions (this stat may not work properly.
system.cpu00.branchPred.BTBHitPct           98.170645                       # BTB Hit Percentage
system.cpu00.branchPred.usedRAS                   943                       # Number of times the RAS was used to get a target.
system.cpu00.branchPred.RASInCorrect               12                       # Number of incorrect RAS predictions.
system.cpu_voltage_domain.voltage                   1                       # Voltage in Volts
system.cpu_clk_domain.clock                       500                       # Clock period in ticks
system.cpu00.dstage2_mmu.stage2_tlb.walker.walks            0                       # Table walker walks requested
system.cpu00.dstage2_mmu.stage2_tlb.walker.walkRequestOrigin_Requested::Data            0                       # Table walker requests started/completed, data/inst
system.cpu00.dstage2_mmu.stage2_tlb.walker.walkRequestOrigin_Requested::Inst            0                       # Table walker requests started/completed, data/inst
system.cpu00.dstage2_mmu.stage2_tlb.walker.walkRequestOrigin_Requested::total            0                       # Table walker requests started/completed, data/inst
system.cpu00.dstage2_mmu.stage2_tlb.walker.walkRequestOrigin_Completed::Data            0                       # Table walker requests started/completed, data/inst
system.cpu00.dstage2_mmu.stage2_tlb.walker.walkRequestOrigin_Completed::Inst            0                       # Table walker requests started/completed, data/inst
system.cpu00.dstage2_mmu.stage2_tlb.walker.walkRequestOrigin_Completed::total            0                       # Table walker requests started/completed, data/inst
system.cpu00.dstage2_mmu.stage2_tlb.walker.walkRequestOrigin::total            0                       # Table walker requests started/completed, data/inst
system.cpu00.dstage2_mmu.stage2_tlb.inst_hits            0                       # ITB inst hits
system.cpu00.dstage2_mmu.stage2_tlb.inst_misses            0                       # ITB inst misses
system.cpu00.dstage2_mmu.stage2_tlb.read_hits            0                       # DTB read hits
system.cpu00.dstage2_mmu.stage2_tlb.read_misses            0                       # DTB read misses
system.cpu00.dstage2_mmu.stage2_tlb.write_hits            0                       # DTB write hits
system.cpu00.dstage2_mmu.stage2_tlb.write_misses            0                       # DTB write misses
system.cpu00.dstage2_mmu.stage2_tlb.flush_tlb            0                       # Number of times complete TLB was flushed
system.cpu00.dstage2_mmu.stage2_tlb.flush_tlb_mva            0                       # Number of times TLB was flushed by MVA
system.cpu00.dstage2_mmu.stage2_tlb.flush_tlb_mva_asid            0                       # Number of times TLB was flushed by MVA & ASID
system.cpu00.dstage2_mmu.stage2_tlb.flush_tlb_asid            0                       # Number of times TLB was flushed by ASID
system.cpu00.dstage2_mmu.stage2_tlb.flush_entries            0                       # Number of entries that have been flushed from TLB
system.cpu00.dstage2_mmu.stage2_tlb.align_faults            0                       # Number of TLB faults due to alignment restrictions
system.cpu00.dstage2_mmu.stage2_tlb.prefetch_faults            0                       # Number of TLB faults due to prefetch
system.cpu00.dstage2_mmu.stage2_tlb.domain_faults            0                       # Number of TLB faults due to domain restrictions
system.cpu00.dstage2_mmu.stage2_tlb.perms_faults            0                       # Number of TLB faults due to permissions restrictions
system.cpu00.dstage2_mmu.stage2_tlb.read_accesses            0                       # DTB read accesses
system.cpu00.dstage2_mmu.stage2_tlb.write_accesses            0                       # DTB write accesses
system.cpu00.dstage2_mmu.stage2_tlb.inst_accesses            0                       # ITB inst accesses
system.cpu00.dstage2_mmu.stage2_tlb.hits            0                       # DTB hits
system.cpu00.dstage2_mmu.stage2_tlb.misses            0                       # DTB misses
system.cpu00.dstage2_mmu.stage2_tlb.accesses            0                       # DTB accesses
system.cpu00.dtb.walker.walks                       0                       # Table walker walks requested
system.cpu00.dtb.walker.walkRequestOrigin_Requested::Data            0                       # Table walker requests started/completed, data/inst
system.cpu00.dtb.walker.walkRequestOrigin_Requested::Inst            0                       # Table walker requests started/completed, data/inst
system.cpu00.dtb.walker.walkRequestOrigin_Requested::total            0                       # Table walker requests started/completed, data/inst
system.cpu00.dtb.walker.walkRequestOrigin_Completed::Data            0                       # Table walker requests started/completed, data/inst
system.cpu00.dtb.walker.walkRequestOrigin_Completed::Inst            0                       # Table walker requests started/completed, data/inst
system.cpu00.dtb.walker.walkRequestOrigin_Completed::total            0                       # Table walker requests started/completed, data/inst
system.cpu00.dtb.walker.walkRequestOrigin::total            0                       # Table walker requests started/completed, data/inst
system.cpu00.dtb.inst_hits                          0                       # ITB inst hits
system.cpu00.dtb.inst_misses                        0                       # ITB inst misses
system.cpu00.dtb.read_hits                          0                       # DTB read hits
system.cpu00.dtb.read_misses                        0                       # DTB read misses
system.cpu00.dtb.write_hits                         0                       # DTB write hits
system.cpu00.dtb.write_misses                       0                       # DTB write misses
system.cpu00.dtb.flush_tlb                          0                       # Number of times complete TLB was flushed
system.cpu00.dtb.flush_tlb_mva                      0                       # Number of times TLB was flushed by MVA
system.cpu00.dtb.flush_tlb_mva_asid                 0                       # Number of times TLB was flushed by MVA & ASID
system.cpu00.dtb.flush_tlb_asid                     0                       # Number of times TLB was flushed by ASID
system.cpu00.dtb.flush_entries                      0                       # Number of entries that have been flushed from TLB
system.cpu00.dtb.align_faults                       0                       # Number of TLB faults due to alignment restrictions
system.cpu00.dtb.prefetch_faults                    0                       # Number of TLB faults due to prefetch
system.cpu00.dtb.domain_faults                      0                       # Number of TLB faults due to domain restrictions
system.cpu00.dtb.perms_faults                       0                       # Number of TLB faults due to permissions restrictions
system.cpu00.dtb.read_accesses                      0                       # DTB read accesses
system.cpu00.dtb.write_accesses                     0                       # DTB write accesses
system.cpu00.dtb.inst_accesses                      0                       # ITB inst accesses
system.cpu00.dtb.hits                               0                       # DTB hits
system.cpu00.dtb.misses                             0                       # DTB misses
system.cpu00.dtb.accesses                           0                       # DTB accesses
system.cpu00.istage2_mmu.stage2_tlb.walker.walks            0                       # Table walker walks requested
system.cpu00.istage2_mmu.stage2_tlb.walker.walkRequestOrigin_Requested::Data            0                       # Table walker requests started/completed, data/inst
system.cpu00.istage2_mmu.stage2_tlb.walker.walkRequestOrigin_Requested::Inst            0                       # Table walker requests started/completed, data/inst
system.cpu00.istage2_mmu.stage2_tlb.walker.walkRequestOrigin_Requested::total            0                       # Table walker requests started/completed, data/inst
system.cpu00.istage2_mmu.stage2_tlb.walker.walkRequestOrigin_Completed::Data            0                       # Table walker requests started/completed, data/inst
system.cpu00.istage2_mmu.stage2_tlb.walker.walkRequestOrigin_Completed::Inst            0                       # Table walker requests started/completed, data/inst
system.cpu00.istage2_mmu.stage2_tlb.walker.walkRequestOrigin_Completed::total            0                       # Table walker requests started/completed, data/inst
system.cpu00.istage2_mmu.stage2_tlb.walker.walkRequestOrigin::total            0                       # Table walker requests started/completed, data/inst
system.cpu00.istage2_mmu.stage2_tlb.inst_hits            0                       # ITB inst hits
system.cpu00.istage2_mmu.stage2_tlb.inst_misses            0                       # ITB inst misses
system.cpu00.istage2_mmu.stage2_tlb.read_hits            0                       # DTB read hits
system.cpu00.istage2_mmu.stage2_tlb.read_misses            0                       # DTB read misses
system.cpu00.istage2_mmu.stage2_tlb.write_hits            0                       # DTB write hits
system.cpu00.istage2_mmu.stage2_tlb.write_misses            0                       # DTB write misses
system.cpu00.istage2_mmu.stage2_tlb.flush_tlb            0                       # Number of times complete TLB was flushed
system.cpu00.istage2_mmu.stage2_tlb.flush_tlb_mva            0                       # Number of times TLB was flushed by MVA
system.cpu00.istage2_mmu.stage2_tlb.flush_tlb_mva_asid            0                       # Number of times TLB was flushed by MVA & ASID
system.cpu00.istage2_mmu.stage2_tlb.flush_tlb_asid            0                       # Number of times TLB was flushed by ASID
system.cpu00.istage2_mmu.stage2_tlb.flush_entries            0                       # Number of entries that have been flushed from TLB
system.cpu00.istage2_mmu.stage2_tlb.align_faults            0                       # Number of TLB faults due to alignment restrictions
system.cpu00.istage2_mmu.stage2_tlb.prefetch_faults            0                       # Number of TLB faults due to prefetch
system.cpu00.istage2_mmu.stage2_tlb.domain_faults            0                       # Number of TLB faults due to domain restrictions
system.cpu00.istage2_mmu.stage2_tlb.perms_faults            0                       # Number of TLB faults due to permissions restrictions
system.cpu00.istage2_mmu.stage2_tlb.read_accesses            0                       # DTB read accesses
system.cpu00.istage2_mmu.stage2_tlb.write_accesses            0                       # DTB write accesses
system.cpu00.istage2_mmu.stage2_tlb.inst_accesses            0                       # ITB inst accesses
system.cpu00.istage2_mmu.stage2_tlb.hits            0                       # DTB hits
system.cpu00.istage2_mmu.stage2_tlb.misses            0                       # DTB misses
system.cpu00.istage2_mmu.stage2_tlb.accesses            0                       # DTB accesses
system.cpu00.itb.walker.walks                       0                       # Table walker walks requested
system.cpu00.itb.walker.walkRequestOrigin_Requested::Data            0                       # Table walker requests started/completed, data/inst
system.cpu00.itb.walker.walkRequestOrigin_Requested::Inst            0                       # Table walker requests started/completed, data/inst
system.cpu00.itb.walker.walkRequestOrigin_Requested::total            0                       # Table walker requests started/completed, data/inst
system.cpu00.itb.walker.walkRequestOrigin_Completed::Data            0                       # Table walker requests started/completed, data/inst
system.cpu00.itb.walker.walkRequestOrigin_Completed::Inst            0                       # Table walker requests started/completed, data/inst
system.cpu00.itb.walker.walkRequestOrigin_Completed::total            0                       # Table walker requests started/completed, data/inst
system.cpu00.itb.walker.walkRequestOrigin::total            0                       # Table walker requests started/completed, data/inst
system.cpu00.itb.inst_hits                          0                       # ITB inst hits
system.cpu00.itb.inst_misses                        0                       # ITB inst misses
system.cpu00.itb.read_hits                          0                       # DTB read hits
system.cpu00.itb.read_misses                        0                       # DTB read misses
system.cpu00.itb.write_hits                         0                       # DTB write hits
system.cpu00.itb.write_misses                       0                       # DTB write misses
system.cpu00.itb.flush_tlb                          0                       # Number of times complete TLB was flushed
system.cpu00.itb.flush_tlb_mva                      0                       # Number of times TLB was flushed by MVA
system.cpu00.itb.flush_tlb_mva_asid                 0                       # Number of times TLB was flushed by MVA & ASID
system.cpu00.itb.flush_tlb_asid                     0                       # Number of times TLB was flushed by ASID
system.cpu00.itb.flush_entries                      0                       # Number of entries that have been flushed from TLB
system.cpu00.itb.align_faults                       0                       # Number of TLB faults due to alignment restrictions
system.cpu00.itb.prefetch_faults                    0                       # Number of TLB faults due to prefetch
system.cpu00.itb.domain_faults                      0                       # Number of TLB faults due to domain restrictions
system.cpu00.itb.perms_faults                       0                       # Number of TLB faults due to permissions restrictions
system.cpu00.itb.read_accesses                      0                       # DTB read accesses
system.cpu00.itb.write_accesses                     0                       # DTB write accesses
system.cpu00.itb.inst_accesses                      0                       # ITB inst accesses
system.cpu00.itb.hits                               0                       # DTB hits
system.cpu00.itb.misses                             0                       # DTB misses
system.cpu00.itb.accesses                           0                       # DTB accesses
system.cpu00.workload.num_syscalls               6070                       # Number of system calls
system.cpu00.numCycles                        2987663                       # number of cpu cycles simulated
system.cpu00.numWorkItemsStarted                    0                       # number of work items this cpu started
system.cpu00.numWorkItemsCompleted                  0                       # number of work items this cpu completed
system.cpu00.fetch.icacheStallCycles           324372                       # Number of cycles fetch is stalled on an Icache miss
system.cpu00.fetch.Insts                      2412643                       # Number of instructions fetch has processed
system.cpu00.fetch.Branches                    177874                       # Number of branches that fetch encountered
system.cpu00.fetch.predictedBranches           173151                       # Number of branches that fetch has predicted taken
system.cpu00.fetch.Cycles                     2619993                       # Number of cycles fetch has run and was not squashing or blocked
system.cpu00.fetch.SquashCycles                  4669                       # Number of cycles fetch has spent squashing
system.cpu00.fetch.MiscStallCycles                  1                       # Number of cycles fetch has spent waiting on interrupts, or bad addresses, or out of MSHRs
system.cpu00.fetch.PendingTrapStallCycles            4                       # Number of stall cycles due to pending traps
system.cpu00.fetch.CacheLines                  310074                       # Number of cache lines fetched
system.cpu00.fetch.IcacheSquashes                 677                       # Number of outstanding Icache misses that were squashed
system.cpu00.fetch.rateDist::samples          2946704                       # Number of instructions fetched each cycle (Total)
system.cpu00.fetch.rateDist::mean            0.821818                       # Number of instructions fetched each cycle (Total)
system.cpu00.fetch.rateDist::stdev           2.081987                       # Number of instructions fetched each cycle (Total)
system.cpu00.fetch.rateDist::underflows             0      0.00%      0.00% # Number of instructions fetched each cycle (Total)
system.cpu00.fetch.rateDist::0                2462183     83.56%     83.56% # Number of instructions fetched each cycle (Total)
system.cpu00.fetch.rateDist::1                  48513      1.65%     85.20% # Number of instructions fetched each cycle (Total)
system.cpu00.fetch.rateDist::2                  58854      2.00%     87.20% # Number of instructions fetched each cycle (Total)
system.cpu00.fetch.rateDist::3                  35378      1.20%     88.40% # Number of instructions fetched each cycle (Total)
system.cpu00.fetch.rateDist::4                  58518      1.99%     90.39% # Number of instructions fetched each cycle (Total)
system.cpu00.fetch.rateDist::5                  39722      1.35%     91.74% # Number of instructions fetched each cycle (Total)
system.cpu00.fetch.rateDist::6                  60108      2.04%     93.78% # Number of instructions fetched each cycle (Total)
system.cpu00.fetch.rateDist::7                 111454      3.78%     97.56% # Number of instructions fetched each cycle (Total)
system.cpu00.fetch.rateDist::8                  71974      2.44%    100.00% # Number of instructions fetched each cycle (Total)
system.cpu00.fetch.rateDist::overflows              0      0.00%    100.00% # Number of instructions fetched each cycle (Total)
system.cpu00.fetch.rateDist::min_value              0                       # Number of instructions fetched each cycle (Total)
system.cpu00.fetch.rateDist::max_value              8                       # Number of instructions fetched each cycle (Total)
system.cpu00.fetch.rateDist::total            2946704                       # Number of instructions fetched each cycle (Total)
system.cpu00.fetch.branchRate                0.059536                       # Number of branch fetches per cycle
system.cpu00.fetch.rate                      0.807535                       # Number of inst fetches per cycle
system.cpu00.decode.IdleCycles                 123687                       # Number of cycles decode is idle
system.cpu00.decode.BlockedCycles             2511148                       # Number of cycles decode is blocked
system.cpu00.decode.RunCycles                   68532                       # Number of cycles decode is running
system.cpu00.decode.UnblockCycles              241311                       # Number of cycles decode is unblocking
system.cpu00.decode.SquashCycles                 2026                       # Number of cycles decode is squashing
system.cpu00.decode.BranchResolved                993                       # Number of times decode resolved a branch
system.cpu00.decode.BranchMispred                 325                       # Number of times decode detected a branch misprediction
system.cpu00.decode.DecodedInsts              2367047                       # Number of instructions handled by decode
system.cpu00.decode.SquashedInsts                1127                       # Number of squashed instructions handled by decode
system.cpu00.rename.SquashCycles                 2026                       # Number of cycles rename is squashing
system.cpu00.rename.IdleCycles                 182366                       # Number of cycles rename is idle
system.cpu00.rename.BlockCycles               1355548                       # Number of cycles rename is blocking
system.cpu00.rename.serializeStallCycles        15860                       # count of cycles rename stalled for serializing inst
system.cpu00.rename.RunCycles                  220053                       # Number of cycles rename is running
system.cpu00.rename.UnblockCycles             1170851                       # Number of cycles rename is unblocking
system.cpu00.rename.RenamedInsts              2358808                       # Number of instructions processed by rename
system.cpu00.rename.ROBFullEvents                  18                       # Number of times rename has blocked due to ROB full
system.cpu00.rename.IQFullEvents               851988                       # Number of times rename has blocked due to IQ full
system.cpu00.rename.LQFullEvents                31373                       # Number of times rename has blocked due to LQ full
system.cpu00.rename.SQFullEvents               256459                       # Number of times rename has blocked due to SQ full
system.cpu00.rename.RenamedOperands           2983988                       # Number of destination operands rename has renamed
system.cpu00.rename.RenameLookups            11579257                       # Number of register rename lookups that rename has made
system.cpu00.rename.int_rename_lookups        3884442                       # Number of integer rename lookups
system.cpu00.rename.fp_rename_lookups              22                       # Number of floating rename lookups
system.cpu00.rename.CommittedMaps             2954350                       # Number of HB maps that are committed
system.cpu00.rename.UndoneMaps                  29638                       # Number of HB maps that are undone due to squashing
system.cpu00.rename.serializingInsts              158                       # count of serializing insts renamed
system.cpu00.rename.tempSerializingInsts          158                       # count of temporary serializing insts renamed
system.cpu00.rename.skidInsts                 1445188                       # count of insts added to the skid buffer
system.cpu00.memDep0.insertedLoads             535912                       # Number of loads inserted to the mem dependence unit.
system.cpu00.memDep0.insertedStores             74684                       # Number of stores inserted to the mem dependence unit.
system.cpu00.memDep0.conflictingLoads            2580                       # Number of conflicting loads.
system.cpu00.memDep0.conflictingStores            541                       # Number of conflicting stores.
system.cpu00.iq.iqInstsAdded                  2349396                       # Number of instructions added to the IQ (excludes non-spec)
system.cpu00.iq.iqNonSpecInstsAdded               297                       # Number of non-speculative instructions added to the IQ
system.cpu00.iq.iqInstsIssued                 4106189                       # Number of instructions issued
system.cpu00.iq.iqSquashedInstsIssued            1015                       # Number of squashed instructions issued
system.cpu00.iq.iqSquashedInstsExamined         17932                       # Number of squashed instructions iterated over during squash; mainly for profiling
system.cpu00.iq.iqSquashedOperandsExamined        48972                       # Number of squashed operands that are examined and possibly removed from graph
system.cpu00.iq.iqSquashedNonSpecRemoved           79                       # Number of squashed non-spec instructions that were removed
system.cpu00.iq.issued_per_cycle::samples      2946704                       # Number of insts issued each cycle
system.cpu00.iq.issued_per_cycle::mean       1.393485                       # Number of insts issued each cycle
system.cpu00.iq.issued_per_cycle::stdev      1.616032                       # Number of insts issued each cycle
system.cpu00.iq.issued_per_cycle::underflows            0      0.00%      0.00% # Number of insts issued each cycle
system.cpu00.iq.issued_per_cycle::0           1299394     44.10%     44.10% # Number of insts issued each cycle
system.cpu00.iq.issued_per_cycle::1            692365     23.50%     67.59% # Number of insts issued each cycle
system.cpu00.iq.issued_per_cycle::2            143807      4.88%     72.47% # Number of insts issued each cycle
system.cpu00.iq.issued_per_cycle::3            118342      4.02%     76.49% # Number of insts issued each cycle
system.cpu00.iq.issued_per_cycle::4            692796     23.51%    100.00% # Number of insts issued each cycle
system.cpu00.iq.issued_per_cycle::overflows            0      0.00%    100.00% # Number of insts issued each cycle
system.cpu00.iq.issued_per_cycle::min_value            0                       # Number of insts issued each cycle
system.cpu00.iq.issued_per_cycle::max_value            4                       # Number of insts issued each cycle
system.cpu00.iq.issued_per_cycle::total       2946704                       # Number of insts issued each cycle
system.cpu00.iq.fu_full::No_OpClass                 0      0.00%      0.00% # attempts to use FU when none available
system.cpu00.iq.fu_full::IntAlu                     0      0.00%      0.00% # attempts to use FU when none available
system.cpu00.iq.fu_full::IntMult                  276    100.00%    100.00% # attempts to use FU when none available
system.cpu00.iq.fu_full::IntDiv                     0      0.00%    100.00% # attempts to use FU when none available
system.cpu00.iq.fu_full::FloatAdd                   0      0.00%    100.00% # attempts to use FU when none available
system.cpu00.iq.fu_full::FloatCmp                   0      0.00%    100.00% # attempts to use FU when none available
system.cpu00.iq.fu_full::FloatCvt                   0      0.00%    100.00% # attempts to use FU when none available
system.cpu00.iq.fu_full::FloatMult                  0      0.00%    100.00% # attempts to use FU when none available
system.cpu00.iq.fu_full::FloatDiv                   0      0.00%    100.00% # attempts to use FU when none available
system.cpu00.iq.fu_full::FloatSqrt                  0      0.00%    100.00% # attempts to use FU when none available
system.cpu00.iq.fu_full::SimdAdd                    0      0.00%    100.00% # attempts to use FU when none available
system.cpu00.iq.fu_full::SimdAddAcc                 0      0.00%    100.00% # attempts to use FU when none available
system.cpu00.iq.fu_full::SimdAlu                    0      0.00%    100.00% # attempts to use FU when none available
system.cpu00.iq.fu_full::SimdCmp                    0      0.00%    100.00% # attempts to use FU when none available
system.cpu00.iq.fu_full::SimdCvt                    0      0.00%    100.00% # attempts to use FU when none available
system.cpu00.iq.fu_full::SimdMisc                   0      0.00%    100.00% # attempts to use FU when none available
system.cpu00.iq.fu_full::SimdMult                   0      0.00%    100.00% # attempts to use FU when none available
system.cpu00.iq.fu_full::SimdMultAcc                0      0.00%    100.00% # attempts to use FU when none available
system.cpu00.iq.fu_full::SimdShift                  0      0.00%    100.00% # attempts to use FU when none available
system.cpu00.iq.fu_full::SimdShiftAcc               0      0.00%    100.00% # attempts to use FU when none available
system.cpu00.iq.fu_full::SimdSqrt                   0      0.00%    100.00% # attempts to use FU when none available
system.cpu00.iq.fu_full::SimdFloatAdd               0      0.00%    100.00% # attempts to use FU when none available
system.cpu00.iq.fu_full::SimdFloatAlu               0      0.00%    100.00% # attempts to use FU when none available
system.cpu00.iq.fu_full::SimdFloatCmp               0      0.00%    100.00% # attempts to use FU when none available
system.cpu00.iq.fu_full::SimdFloatCvt               0      0.00%    100.00% # attempts to use FU when none available
system.cpu00.iq.fu_full::SimdFloatDiv               0      0.00%    100.00% # attempts to use FU when none available
system.cpu00.iq.fu_full::SimdFloatMisc              0      0.00%    100.00% # attempts to use FU when none available
system.cpu00.iq.fu_full::SimdFloatMult              0      0.00%    100.00% # attempts to use FU when none available
system.cpu00.iq.fu_full::SimdFloatMultAcc            0      0.00%    100.00% # attempts to use FU when none available
system.cpu00.iq.fu_full::SimdFloatSqrt              0      0.00%    100.00% # attempts to use FU when none available
system.cpu00.iq.fu_full::MemRead                    0      0.00%    100.00% # attempts to use FU when none available
system.cpu00.iq.fu_full::MemWrite                   0      0.00%    100.00% # attempts to use FU when none available
system.cpu00.iq.fu_full::IprAccess                  0      0.00%    100.00% # attempts to use FU when none available
system.cpu00.iq.fu_full::InstPrefetch               0      0.00%    100.00% # attempts to use FU when none available
system.cpu00.iq.FU_type_0::No_OpClass               0      0.00%      0.00% # Type of FU issued
system.cpu00.iq.FU_type_0::IntAlu             1306329     31.81%     31.81% # Type of FU issued
system.cpu00.iq.FU_type_0::IntMult             426414     10.38%     42.20% # Type of FU issued
system.cpu00.iq.FU_type_0::IntDiv                   0      0.00%     42.20% # Type of FU issued
system.cpu00.iq.FU_type_0::FloatAdd                 0      0.00%     42.20% # Type of FU issued
system.cpu00.iq.FU_type_0::FloatCmp                 0      0.00%     42.20% # Type of FU issued
system.cpu00.iq.FU_type_0::FloatCvt                 0      0.00%     42.20% # Type of FU issued
system.cpu00.iq.FU_type_0::FloatMult                0      0.00%     42.20% # Type of FU issued
system.cpu00.iq.FU_type_0::FloatDiv                 0      0.00%     42.20% # Type of FU issued
system.cpu00.iq.FU_type_0::FloatSqrt                0      0.00%     42.20% # Type of FU issued
system.cpu00.iq.FU_type_0::SimdAdd                  0      0.00%     42.20% # Type of FU issued
system.cpu00.iq.FU_type_0::SimdAddAcc               0      0.00%     42.20% # Type of FU issued
system.cpu00.iq.FU_type_0::SimdAlu                  0      0.00%     42.20% # Type of FU issued
system.cpu00.iq.FU_type_0::SimdCmp                  0      0.00%     42.20% # Type of FU issued
system.cpu00.iq.FU_type_0::SimdCvt                  0      0.00%     42.20% # Type of FU issued
system.cpu00.iq.FU_type_0::SimdMisc                 0      0.00%     42.20% # Type of FU issued
system.cpu00.iq.FU_type_0::SimdMult                 0      0.00%     42.20% # Type of FU issued
system.cpu00.iq.FU_type_0::SimdMultAcc              0      0.00%     42.20% # Type of FU issued
system.cpu00.iq.FU_type_0::SimdShift                0      0.00%     42.20% # Type of FU issued
system.cpu00.iq.FU_type_0::SimdShiftAcc             0      0.00%     42.20% # Type of FU issued
system.cpu00.iq.FU_type_0::SimdSqrt                 0      0.00%     42.20% # Type of FU issued
system.cpu00.iq.FU_type_0::SimdFloatAdd             0      0.00%     42.20% # Type of FU issued
system.cpu00.iq.FU_type_0::SimdFloatAlu             0      0.00%     42.20% # Type of FU issued
system.cpu00.iq.FU_type_0::SimdFloatCmp             0      0.00%     42.20% # Type of FU issued
system.cpu00.iq.FU_type_0::SimdFloatCvt             0      0.00%     42.20% # Type of FU issued
system.cpu00.iq.FU_type_0::SimdFloatDiv             0      0.00%     42.20% # Type of FU issued
system.cpu00.iq.FU_type_0::SimdFloatMisc            3      0.00%     42.20% # Type of FU issued
system.cpu00.iq.FU_type_0::SimdFloatMult            0      0.00%     42.20% # Type of FU issued
system.cpu00.iq.FU_type_0::SimdFloatMultAcc            0      0.00%     42.20% # Type of FU issued
system.cpu00.iq.FU_type_0::SimdFloatSqrt            0      0.00%     42.20% # Type of FU issued
system.cpu00.iq.FU_type_0::MemRead            2299811     56.01%     98.21% # Type of FU issued
system.cpu00.iq.FU_type_0::MemWrite             73632      1.79%    100.00% # Type of FU issued
system.cpu00.iq.FU_type_0::IprAccess                0      0.00%    100.00% # Type of FU issued
system.cpu00.iq.FU_type_0::InstPrefetch             0      0.00%    100.00% # Type of FU issued
system.cpu00.iq.FU_type_0::total              4106189                       # Type of FU issued
system.cpu00.iq.rate                         1.374382                       # Inst issue rate
system.cpu00.iq.fu_busy_cnt                       276                       # FU busy when requested
system.cpu00.iq.fu_busy_rate                 0.000067                       # FU busy rate (busy events/executed inst)
system.cpu00.iq.int_inst_queue_reads         11160317                       # Number of integer instruction queue reads
system.cpu00.iq.int_inst_queue_writes         2367668                       # Number of integer instruction queue writes
system.cpu00.iq.int_inst_queue_wakeup_accesses      2337700                       # Number of integer instruction queue wakeup accesses
system.cpu00.iq.fp_inst_queue_reads                56                       # Number of floating instruction queue reads
system.cpu00.iq.fp_inst_queue_writes               28                       # Number of floating instruction queue writes
system.cpu00.iq.fp_inst_queue_wakeup_accesses           28                       # Number of floating instruction queue wakeup accesses
system.cpu00.iq.int_alu_accesses              4106437                       # Number of integer alu accesses
system.cpu00.iq.fp_alu_accesses                    28                       # Number of floating point alu accesses
[...]
system.tol2bus.pkt_count_system.cpu06.dcache.mem_side::system.l2.cpu_side       205967                       # Packet count per connected master and slave (bytes)
system.tol2bus.pkt_count_system.cpu07.icache.mem_side::system.l2.cpu_side          112                       # Packet count per connected master and slave (bytes)
system.tol2bus.pkt_count_system.cpu07.dcache.mem_side::system.l2.cpu_side       205884                       # Packet count per connected master and slave (bytes)
system.tol2bus.pkt_count_system.cpu08.icache.mem_side::system.l2.cpu_side          106                       # Packet count per connected master and slave (bytes)
system.tol2bus.pkt_count_system.cpu08.dcache.mem_side::system.l2.cpu_side       205747                       # Packet count per connected master and slave (bytes)
system.tol2bus.pkt_count_system.cpu09.icache.mem_side::system.l2.cpu_side          110                       # Packet count per connected master and slave (bytes)
system.tol2bus.pkt_count_system.cpu09.dcache.mem_side::system.l2.cpu_side       205803                       # Packet count per connected master and slave (bytes)
system.tol2bus.pkt_count_system.cpu10.icache.mem_side::system.l2.cpu_side          114                       # Packet count per connected master and slave (bytes)
system.tol2bus.pkt_count_system.cpu10.dcache.mem_side::system.l2.cpu_side       205964                       # Packet count per connected master and slave (bytes)
system.tol2bus.pkt_count_system.cpu11.icache.mem_side::system.l2.cpu_side          110                       # Packet count per connected master and slave (bytes)
system.tol2bus.pkt_count_system.cpu11.dcache.mem_side::system.l2.cpu_side       205756                       # Packet count per connected master and slave (bytes)
system.tol2bus.pkt_count_system.cpu12.icache.mem_side::system.l2.cpu_side          108                       # Packet count per connected master and slave (bytes)
system.tol2bus.pkt_count_system.cpu12.dcache.mem_side::system.l2.cpu_side       205804                       # Packet count per connected master and slave (bytes)
system.tol2bus.pkt_count_system.cpu13.icache.mem_side::system.l2.cpu_side          110                       # Packet count per connected master and slave (bytes)
system.tol2bus.pkt_count_system.cpu13.dcache.mem_side::system.l2.cpu_side       205678                       # Packet count per connected master and slave (bytes)
system.tol2bus.pkt_count_system.cpu14.icache.mem_side::system.l2.cpu_side          110                       # Packet count per connected master and slave (bytes)
system.tol2bus.pkt_count_system.cpu14.dcache.mem_side::system.l2.cpu_side       205823                       # Packet count per connected master and slave (bytes)
system.tol2bus.pkt_count_system.cpu15.icache.mem_side::system.l2.cpu_side          104                       # Packet count per connected master and slave (bytes)
system.tol2bus.pkt_count_system.cpu15.dcache.mem_side::system.l2.cpu_side       205661                       # Packet count per connected master and slave (bytes)
system.tol2bus.pkt_count::total               3360697                       # Packet count per connected master and slave (bytes)
system.tol2bus.pkt_size_system.cpu00.icache.mem_side::system.l2.cpu_side        39424                       # Cumulative packet size per connected master and slave (bytes)
system.tol2bus.pkt_size_system.cpu00.dcache.mem_side::system.l2.cpu_side      8510336                       # Cumulative packet size per connected master and slave (bytes)
system.tol2bus.pkt_size_system.cpu01.icache.mem_side::system.l2.cpu_side         3520                       # Cumulative packet size per connected master and slave (bytes)
system.tol2bus.pkt_size_system.cpu01.dcache.mem_side::system.l2.cpu_side      4633600                       # Cumulative packet size per connected master and slave (bytes)
system.tol2bus.pkt_size_system.cpu02.icache.mem_side::system.l2.cpu_side         3328                       # Cumulative packet size per connected master and slave (bytes)
system.tol2bus.pkt_size_system.cpu02.dcache.mem_side::system.l2.cpu_side      4626880                       # Cumulative packet size per connected master and slave (bytes)
system.tol2bus.pkt_size_system.cpu03.icache.mem_side::system.l2.cpu_side         3456                       # Cumulative packet size per connected master and slave (bytes)
system.tol2bus.pkt_size_system.cpu03.dcache.mem_side::system.l2.cpu_side      4630208                       # Cumulative packet size per connected master and slave (bytes)
system.tol2bus.pkt_size_system.cpu04.icache.mem_side::system.l2.cpu_side         3456                       # Cumulative packet size per connected master and slave (bytes)
system.tol2bus.pkt_size_system.cpu04.dcache.mem_side::system.l2.cpu_side      4627200                       # Cumulative packet size per connected master and slave (bytes)
system.tol2bus.pkt_size_system.cpu05.icache.mem_side::system.l2.cpu_side         3392                       # Cumulative packet size per connected master and slave (bytes)
system.tol2bus.pkt_size_system.cpu05.dcache.mem_side::system.l2.cpu_side      4616192                       # Cumulative packet size per connected master and slave (bytes)
system.tol2bus.pkt_size_system.cpu06.icache.mem_side::system.l2.cpu_side         3392                       # Cumulative packet size per connected master and slave (bytes)
system.tol2bus.pkt_size_system.cpu06.dcache.mem_side::system.l2.cpu_side      4641408                       # Cumulative packet size per connected master and slave (bytes)
system.tol2bus.pkt_size_system.cpu07.icache.mem_side::system.l2.cpu_side         3584                       # Cumulative packet size per connected master and slave (bytes)
system.tol2bus.pkt_size_system.cpu07.dcache.mem_side::system.l2.cpu_side      4635968                       # Cumulative packet size per connected master and slave (bytes)
system.tol2bus.pkt_size_system.cpu08.icache.mem_side::system.l2.cpu_side         3392                       # Cumulative packet size per connected master and slave (bytes)
system.tol2bus.pkt_size_system.cpu08.dcache.mem_side::system.l2.cpu_side      4627328                       # Cumulative packet size per connected master and slave (bytes)
system.tol2bus.pkt_size_system.cpu09.icache.mem_side::system.l2.cpu_side         3520                       # Cumulative packet size per connected master and slave (bytes)
system.tol2bus.pkt_size_system.cpu09.dcache.mem_side::system.l2.cpu_side      4631104                       # Cumulative packet size per connected master and slave (bytes)
system.tol2bus.pkt_size_system.cpu10.icache.mem_side::system.l2.cpu_side         3648                       # Cumulative packet size per connected master and slave (bytes)
system.tol2bus.pkt_size_system.cpu10.dcache.mem_side::system.l2.cpu_side      4641600                       # Cumulative packet size per connected master and slave (bytes)
system.tol2bus.pkt_size_system.cpu11.icache.mem_side::system.l2.cpu_side         3520                       # Cumulative packet size per connected master and slave (bytes)
system.tol2bus.pkt_size_system.cpu11.dcache.mem_side::system.l2.cpu_side      4627584                       # Cumulative packet size per connected master and slave (bytes)
system.tol2bus.pkt_size_system.cpu12.icache.mem_side::system.l2.cpu_side         3456                       # Cumulative packet size per connected master and slave (bytes)
system.tol2bus.pkt_size_system.cpu12.dcache.mem_side::system.l2.cpu_side      4630912                       # Cumulative packet size per connected master and slave (bytes)
system.tol2bus.pkt_size_system.cpu13.icache.mem_side::system.l2.cpu_side         3520                       # Cumulative packet size per connected master and slave (bytes)
system.tol2bus.pkt_size_system.cpu13.dcache.mem_side::system.l2.cpu_side      4622720                       # Cumulative packet size per connected master and slave (bytes)
system.tol2bus.pkt_size_system.cpu14.icache.mem_side::system.l2.cpu_side         3520                       # Cumulative packet size per connected master and slave (bytes)
system.tol2bus.pkt_size_system.cpu14.dcache.mem_side::system.l2.cpu_side      4632256                       # Cumulative packet size per connected master and slave (bytes)
system.tol2bus.pkt_size_system.cpu15.icache.mem_side::system.l2.cpu_side         3328                       # Cumulative packet size per connected master and slave (bytes)
system.tol2bus.pkt_size_system.cpu15.dcache.mem_side::system.l2.cpu_side      4621888                       # Cumulative packet size per connected master and slave (bytes)
system.tol2bus.pkt_size::total               78048640                       # Cumulative packet size per connected master and slave (bytes)
system.tol2bus.snoops                         1048667                       # Total snoops (count)
system.tol2bus.snoop_fanout::samples          2268197                       # Request fanout histogram
system.tol2bus.snoop_fanout::mean                  31                       # Request fanout histogram
system.tol2bus.snoop_fanout::stdev                  0                       # Request fanout histogram
system.tol2bus.snoop_fanout::underflows             0      0.00%      0.00% # Request fanout histogram
system.tol2bus.snoop_fanout::0                      0      0.00%      0.00% # Request fanout histogram
system.tol2bus.snoop_fanout::1                      0      0.00%      0.00% # Request fanout histogram
system.tol2bus.snoop_fanout::2                      0      0.00%      0.00% # Request fanout histogram
system.tol2bus.snoop_fanout::3                      0      0.00%      0.00% # Request fanout histogram
system.tol2bus.snoop_fanout::4                      0      0.00%      0.00% # Request fanout histogram
system.tol2bus.snoop_fanout::5                      0      0.00%      0.00% # Request fanout histogram
system.tol2bus.snoop_fanout::6                      0      0.00%      0.00% # Request fanout histogram
system.tol2bus.snoop_fanout::7                      0      0.00%      0.00% # Request fanout histogram
system.tol2bus.snoop_fanout::8                      0      0.00%      0.00% # Request fanout histogram
system.tol2bus.snoop_fanout::9                      0      0.00%      0.00% # Request fanout histogram
system.tol2bus.snoop_fanout::10                     0      0.00%      0.00% # Request fanout histogram
system.tol2bus.snoop_fanout::11                     0      0.00%      0.00% # Request fanout histogram
system.tol2bus.snoop_fanout::12                     0      0.00%      0.00% # Request fanout histogram
system.tol2bus.snoop_fanout::13                     0      0.00%      0.00% # Request fanout histogram
system.tol2bus.snoop_fanout::14                     0      0.00%      0.00% # Request fanout histogram
system.tol2bus.snoop_fanout::15                     0      0.00%      0.00% # Request fanout histogram
system.tol2bus.snoop_fanout::16                     0      0.00%      0.00% # Request fanout histogram
system.tol2bus.snoop_fanout::17                     0      0.00%      0.00% # Request fanout histogram
system.tol2bus.snoop_fanout::18                     0      0.00%      0.00% # Request fanout histogram
system.tol2bus.snoop_fanout::19                     0      0.00%      0.00% # Request fanout histogram
system.tol2bus.snoop_fanout::20                     0      0.00%      0.00% # Request fanout histogram
system.tol2bus.snoop_fanout::21                     0      0.00%      0.00% # Request fanout histogram
system.tol2bus.snoop_fanout::22                     0      0.00%      0.00% # Request fanout histogram
system.tol2bus.snoop_fanout::23                     0      0.00%      0.00% # Request fanout histogram
system.tol2bus.snoop_fanout::24                     0      0.00%      0.00% # Request fanout histogram
system.tol2bus.snoop_fanout::25                     0      0.00%      0.00% # Request fanout histogram
system.tol2bus.snoop_fanout::26                     0      0.00%      0.00% # Request fanout histogram
system.tol2bus.snoop_fanout::27                     0      0.00%      0.00% # Request fanout histogram
system.tol2bus.snoop_fanout::28                     0      0.00%      0.00% # Request fanout histogram
system.tol2bus.snoop_fanout::29                     0      0.00%      0.00% # Request fanout histogram
system.tol2bus.snoop_fanout::30                     0      0.00%      0.00% # Request fanout histogram
system.tol2bus.snoop_fanout::31               2268197    100.00%    100.00% # Request fanout histogram
system.tol2bus.snoop_fanout::32                     0      0.00%    100.00% # Request fanout histogram
system.tol2bus.snoop_fanout::overflows              0      0.00%    100.00% # Request fanout histogram
system.tol2bus.snoop_fanout::min_value             31                       # Request fanout histogram
system.tol2bus.snoop_fanout::max_value             31                       # Request fanout histogram
system.tol2bus.snoop_fanout::total            2268197                       # Request fanout histogram
system.tol2bus.reqLayer0.occupancy         1261114993                       # Layer occupancy (ticks)
system.tol2bus.reqLayer0.utilization             84.4                       # Layer utilization (%)
system.tol2bus.respLayer0.occupancy           1021485                       # Layer occupancy (ticks)
system.tol2bus.respLayer0.utilization             0.1                       # Layer utilization (%)
system.tol2bus.respLayer1.occupancy         209769708                       # Layer occupancy (ticks)
system.tol2bus.respLayer1.utilization            14.0                       # Layer utilization (%)
system.tol2bus.respLayer4.occupancy             88945                       # Layer occupancy (ticks)
system.tol2bus.respLayer4.utilization             0.0                       # Layer utilization (%)
system.tol2bus.respLayer5.occupancy         201768633                       # Layer occupancy (ticks)
system.tol2bus.respLayer5.utilization            13.5                       # Layer utilization (%)
system.tol2bus.respLayer8.occupancy             88442                       # Layer occupancy (ticks)
system.tol2bus.respLayer8.utilization             0.0                       # Layer utilization (%)
system.tol2bus.respLayer9.occupancy         201741453                       # Layer occupancy (ticks)
system.tol2bus.respLayer9.utilization            13.5                       # Layer utilization (%)
system.tol2bus.respLayer12.occupancy            87439                       # Layer occupancy (ticks)
system.tol2bus.respLayer12.utilization            0.0                       # Layer utilization (%)
system.tol2bus.respLayer13.occupancy        201659313                       # Layer occupancy (ticks)
system.tol2bus.respLayer13.utilization           13.5                       # Layer utilization (%)
system.tol2bus.respLayer16.occupancy            84936                       # Layer occupancy (ticks)
system.tol2bus.respLayer16.utilization            0.0                       # Layer utilization (%)
system.tol2bus.respLayer17.occupancy        201710490                       # Layer occupancy (ticks)
system.tol2bus.respLayer17.utilization           13.5                       # Layer utilization (%)
system.tol2bus.respLayer20.occupancy            82695                       # Layer occupancy (ticks)
system.tol2bus.respLayer20.utilization            0.0                       # Layer utilization (%)
system.tol2bus.respLayer21.occupancy        201730678                       # Layer occupancy (ticks)
system.tol2bus.respLayer21.utilization           13.5                       # Layer utilization (%)
system.tol2bus.respLayer24.occupancy            82461                       # Layer occupancy (ticks)
system.tol2bus.respLayer24.utilization            0.0                       # Layer utilization (%)
system.tol2bus.respLayer25.occupancy        201808777                       # Layer occupancy (ticks)
system.tol2bus.respLayer25.utilization           13.5                       # Layer utilization (%)
system.tol2bus.respLayer28.occupancy            86715                       # Layer occupancy (ticks)
system.tol2bus.respLayer28.utilization            0.0                       # Layer utilization (%)
system.tol2bus.respLayer29.occupancy        201857362                       # Layer occupancy (ticks)
system.tol2bus.respLayer29.utilization           13.5                       # Layer utilization (%)
system.tol2bus.respLayer32.occupancy            82462                       # Layer occupancy (ticks)
system.tol2bus.respLayer32.utilization            0.0                       # Layer utilization (%)
system.tol2bus.respLayer33.occupancy        201781272                       # Layer occupancy (ticks)
system.tol2bus.respLayer33.utilization           13.5                       # Layer utilization (%)
system.tol2bus.respLayer36.occupancy            85468                       # Layer occupancy (ticks)
system.tol2bus.respLayer36.utilization            0.0                       # Layer utilization (%)
system.tol2bus.respLayer37.occupancy        201834363                       # Layer occupancy (ticks)
system.tol2bus.respLayer37.utilization           13.5                       # Layer utilization (%)
system.tol2bus.respLayer40.occupancy            88968                       # Layer occupancy (ticks)
system.tol2bus.respLayer40.utilization            0.0                       # Layer utilization (%)
system.tol2bus.respLayer41.occupancy        201702168                       # Layer occupancy (ticks)
system.tol2bus.respLayer41.utilization           13.5                       # Layer utilization (%)
system.tol2bus.respLayer44.occupancy            84972                       # Layer occupancy (ticks)
system.tol2bus.respLayer44.utilization            0.0                       # Layer utilization (%)
system.tol2bus.respLayer45.occupancy        201768056                       # Layer occupancy (ticks)
system.tol2bus.respLayer45.utilization           13.5                       # Layer utilization (%)
system.tol2bus.respLayer48.occupancy            83215                       # Layer occupancy (ticks)
system.tol2bus.respLayer48.utilization            0.0                       # Layer utilization (%)
system.tol2bus.respLayer49.occupancy        201692548                       # Layer occupancy (ticks)
system.tol2bus.respLayer49.utilization           13.5                       # Layer utilization (%)
system.tol2bus.respLayer52.occupancy            84491                       # Layer occupancy (ticks)
system.tol2bus.respLayer52.utilization            0.0                       # Layer utilization (%)
system.tol2bus.respLayer53.occupancy        201917620                       # Layer occupancy (ticks)
system.tol2bus.respLayer53.utilization           13.5                       # Layer utilization (%)
system.tol2bus.respLayer56.occupancy            83990                       # Layer occupancy (ticks)
system.tol2bus.respLayer56.utilization            0.0                       # Layer utilization (%)
system.tol2bus.respLayer57.occupancy        201800430                       # Layer occupancy (ticks)
system.tol2bus.respLayer57.utilization           13.5                       # Layer utilization (%)
system.tol2bus.respLayer60.occupancy            78500                       # Layer occupancy (ticks)
system.tol2bus.respLayer60.utilization            0.0                       # Layer utilization (%)
system.tol2bus.respLayer61.occupancy        201692748                       # Layer occupancy (ticks)
system.tol2bus.respLayer61.utilization           13.5                       # Layer utilization (%)

---------- End Simulation Statistics   ----------
