
---------- Begin Simulation Statistics ----------
sim_seconds                                  0.002331                       # Number of seconds simulated
sim_ticks                                  2330802000                       # Number of ticks simulated
final_tick                                 2330802000                       # Number of ticks from beginning of simulation (restored from checkpoints and never reset)
sim_freq                                 1000000000000                       # Frequency of simulated ticks
host_inst_rate                                 171828                       # Simulator instruction rate (inst/s)
host_op_rate                                   171944                       # Simulator op (including micro ops) rate (op/s)
host_tick_rate                               12502265                       # Simulator tick rate (ticks/s)
host_mem_usage                                 665892                       # Number of bytes of host memory used
host_seconds                                   186.43                       # Real time elapsed on the host
sim_insts                                    32033948                       # Number of instructions simulated
sim_ops                                      32055577                       # Number of ops (including micro ops) simulated
system.voltage_domain.voltage                       1                       # Voltage in Volts
system.clk_domain.clock                          1000                       # Clock period in ticks
system.mem_ctrls.bytes_read::cpu0.inst          33216                       # Number of bytes read from this memory
system.mem_ctrls.bytes_read::cpu0.data         311360                       # Number of bytes read from this memory
system.mem_ctrls.bytes_read::cpu1.inst            832                       # Number of bytes read from this memory
system.mem_ctrls.bytes_read::cpu1.data          33408                       # Number of bytes read from this memory
system.mem_ctrls.bytes_read::cpu2.inst            384                       # Number of bytes read from this memory
system.mem_ctrls.bytes_read::cpu2.data          33216                       # Number of bytes read from this memory
system.mem_ctrls.bytes_read::cpu3.inst            320                       # Number of bytes read from this memory
system.mem_ctrls.bytes_read::cpu3.data          33216                       # Number of bytes read from this memory
system.mem_ctrls.bytes_read::total             445952                       # Number of bytes read from this memory
system.mem_ctrls.bytes_inst_read::cpu0.inst        33216                       # Number of instructions bytes read from this memory
system.mem_ctrls.bytes_inst_read::cpu1.inst          832                       # Number of instructions bytes read from this memory
system.mem_ctrls.bytes_inst_read::cpu2.inst          384                       # Number of instructions bytes read from this memory
system.mem_ctrls.bytes_inst_read::cpu3.inst          320                       # Number of instructions bytes read from this memory
system.mem_ctrls.bytes_inst_read::total         34752                       # Number of instructions bytes read from this memory
system.mem_ctrls.num_reads::cpu0.inst             519                       # Number of read requests responded to by this memory
system.mem_ctrls.num_reads::cpu0.data            4865                       # Number of read requests responded to by this memory
system.mem_ctrls.num_reads::cpu1.inst              13                       # Number of read requests responded to by this memory
system.mem_ctrls.num_reads::cpu1.data             522                       # Number of read requests responded to by this memory
system.mem_ctrls.num_reads::cpu2.inst               6                       # Number of read requests responded to by this memory
system.mem_ctrls.num_reads::cpu2.data             519                       # Number of read requests responded to by this memory
system.mem_ctrls.num_reads::cpu3.inst               5                       # Number of read requests responded to by this memory
system.mem_ctrls.num_reads::cpu3.data             519                       # Number of read requests responded to by this memory
system.mem_ctrls.num_reads::total                6968                       # Number of read requests responded to by this memory
system.mem_ctrls.bw_read::cpu0.inst          14250889                       # Total read bandwidth from this memory (bytes/s)
system.mem_ctrls.bw_read::cpu0.data         133584921                       # Total read bandwidth from this memory (bytes/s)
system.mem_ctrls.bw_read::cpu1.inst            356959                       # Total read bandwidth from this memory (bytes/s)
system.mem_ctrls.bw_read::cpu1.data          14333264                       # Total read bandwidth from this memory (bytes/s)
system.mem_ctrls.bw_read::cpu2.inst            164750                       # Total read bandwidth from this memory (bytes/s)
system.mem_ctrls.bw_read::cpu2.data          14250889                       # Total read bandwidth from this memory (bytes/s)
system.mem_ctrls.bw_read::cpu3.inst            137292                       # Total read bandwidth from this memory (bytes/s)
system.mem_ctrls.bw_read::cpu3.data          14250889                       # Total read bandwidth from this memory (bytes/s)
system.mem_ctrls.bw_read::total             191329851                       # Total read bandwidth from this memory (bytes/s)
system.mem_ctrls.bw_inst_read::cpu0.inst     14250889                       # Instruction read bandwidth from this memory (bytes/s)
system.mem_ctrls.bw_inst_read::cpu1.inst       356959                       # Instruction read bandwidth from this memory (bytes/s)
system.mem_ctrls.bw_inst_read::cpu2.inst       164750                       # Instruction read bandwidth from this memory (bytes/s)
system.mem_ctrls.bw_inst_read::cpu3.inst       137292                       # Instruction read bandwidth from this memory (bytes/s)
system.mem_ctrls.bw_inst_read::total         14909889                       # Instruction read bandwidth from this memory (bytes/s)
system.mem_ctrls.bw_total::cpu0.inst         14250889                       # Total bandwidth to/from this memory (bytes/s)
system.mem_ctrls.bw_total::cpu0.data        133584921                       # Total bandwidth to/from this memory (bytes/s)
system.mem_ctrls.bw_total::cpu1.inst           356959                       # Total bandwidth to/from this memory (bytes/s)
system.mem_ctrls.bw_total::cpu1.data         14333264                       # Total bandwidth to/from this memory (bytes/s)
system.mem_ctrls.bw_total::cpu2.inst           164750                       # Total bandwidth to/from this memory (bytes/s)
system.mem_ctrls.bw_total::cpu2.data         14250889                       # Total bandwidth to/from this memory (bytes/s)
system.mem_ctrls.bw_total::cpu3.inst           137292                       # Total bandwidth to/from this memory (bytes/s)
system.mem_ctrls.bw_total::cpu3.data         14250889                       # Total bandwidth to/from this memory (bytes/s)
system.mem_ctrls.bw_total::total            191329851                       # Total bandwidth to/from this memory (bytes/s)
system.mem_ctrls.readReqs                        6968                       # Number of read requests accepted
system.mem_ctrls.writeReqs                          0                       # Number of write requests accepted
system.mem_ctrls.readBursts                      6968                       # Number of DRAM read bursts, including those serviced by the write queue
system.mem_ctrls.writeBursts                        0                       # Number of DRAM write bursts, including those merged in the write queue
system.mem_ctrls.bytesReadDRAM                 445952                       # Total number of bytes read from DRAM
system.mem_ctrls.bytesReadWrQ                       0                       # Total number of bytes read from write queue
system.mem_ctrls.bytesWritten                       0                       # Total number of bytes written to DRAM
system.mem_ctrls.bytesReadSys                  445952                       # Total read bytes from the system interface side
system.mem_ctrls.bytesWrittenSys                    0                       # Total written bytes from the system interface side
system.mem_ctrls.servicedByWrQ                      0                       # Number of DRAM read bursts serviced by the write queue
system.mem_ctrls.mergedWrBursts                     0                       # Number of DRAM write bursts merged with an existing one
system.mem_ctrls.neitherReadNorWriteReqs            5                       # Number of requests that are neither read nor write
system.mem_ctrls.perBankRdBursts::0               509                       # Per bank write bursts
system.mem_ctrls.perBankRdBursts::1               507                       # Per bank write bursts
system.mem_ctrls.perBankRdBursts::2               518                       # Per bank write bursts
system.mem_ctrls.perBankRdBursts::3               474                       # Per bank write bursts
system.mem_ctrls.perBankRdBursts::4               421                       # Per bank write bursts
system.mem_ctrls.perBankRdBursts::5               421                       # Per bank write bursts
system.mem_ctrls.perBankRdBursts::6               464                       # Per bank write bursts
system.mem_ctrls.perBankRdBursts::7               415                       # Per bank write bursts
system.mem_ctrls.perBankRdBursts::8               398                       # Per bank write bursts
system.mem_ctrls.perBankRdBursts::9               394                       # Per bank write bursts
system.mem_ctrls.perBankRdBursts::10              384                       # Per bank write bursts
system.mem_ctrls.perBankRdBursts::11              396                       # Per bank write bursts
system.mem_ctrls.perBankRdBursts::12              390                       # Per bank write bursts
system.mem_ctrls.perBankRdBursts::13              417                       # Per bank write bursts
system.mem_ctrls.perBankRdBursts::14              422                       # Per bank write bursts
system.mem_ctrls.perBankRdBursts::15              438                       # Per bank write bursts
system.mem_ctrls.perBankWrBursts::0                 0                       # Per bank write bursts
system.mem_ctrls.perBankWrBursts::1                 0                       # Per bank write bursts
system.mem_ctrls.perBankWrBursts::2                 0                       # Per bank write bursts
system.mem_ctrls.perBankWrBursts::3                 0                       # Per bank write bursts
system.mem_ctrls.perBankWrBursts::4                 0                       # Per bank write bursts
system.mem_ctrls.perBankWrBursts::5                 0                       # Per bank write bursts
system.mem_ctrls.perBankWrBursts::6                 0                       # Per bank write bursts
system.mem_ctrls.perBankWrBursts::7                 0                       # Per bank write bursts
system.mem_ctrls.perBankWrBursts::8                 0                       # Per bank write bursts
system.mem_ctrls.perBankWrBursts::9                 0                       # Per bank write bursts
system.mem_ctrls.perBankWrBursts::10                0                       # Per bank write bursts
system.mem_ctrls.perBankWrBursts::11                0                       # Per bank write bursts
system.mem_ctrls.perBankWrBursts::12                0                       # Per bank write bursts
system.mem_ctrls.perBankWrBursts::13                0                       # Per bank write bursts
system.mem_ctrls.perBankWrBursts::14                0                       # Per bank write bursts
system.mem_ctrls.perBankWrBursts::15                0                       # Per bank write bursts
system.mem_ctrls.numRdRetry                         0                       # Number of times read queue was full causing retry
system.mem_ctrls.numWrRetry                         0                       # Number of times write queue was full causing retry
system.mem_ctrls.totGap                    2330758500                       # Total gap between requests
system.mem_ctrls.readPktSize::0                     0                       # Read request sizes (log2)
system.mem_ctrls.readPktSize::1                     0                       # Read request sizes (log2)
system.mem_ctrls.readPktSize::2                     0                       # Read request sizes (log2)
system.mem_ctrls.readPktSize::3                     0                       # Read request sizes (log2)
system.mem_ctrls.readPktSize::4                     0                       # Read request sizes (log2)
system.mem_ctrls.readPktSize::5                     0                       # Read request sizes (log2)
system.mem_ctrls.readPktSize::6                  6968                       # Read request sizes (log2)
system.mem_ctrls.writePktSize::0                    0                       # Write request sizes (log2)
system.mem_ctrls.writePktSize::1                    0                       # Write request sizes (log2)
system.mem_ctrls.writePktSize::2                    0                       # Write request sizes (log2)
system.mem_ctrls.writePktSize::3                    0                       # Write request sizes (log2)
system.mem_ctrls.writePktSize::4                    0                       # Write request sizes (log2)
system.mem_ctrls.writePktSize::5                    0                       # Write request sizes (log2)
system.mem_ctrls.writePktSize::6                    0                       # Write request sizes (log2)
system.mem_ctrls.rdQLenPdf::0                    4801                       # What read queue length does an incoming req see
system.mem_ctrls.rdQLenPdf::1                    1041                       # What read queue length does an incoming req see
system.mem_ctrls.rdQLenPdf::2                     581                       # What read queue length does an incoming req see
system.mem_ctrls.rdQLenPdf::3                     526                       # What read queue length does an incoming req see
system.mem_ctrls.rdQLenPdf::4                      17                       # What read queue length does an incoming req see
system.mem_ctrls.rdQLenPdf::5                       2                       # What read queue length does an incoming req see
system.mem_ctrls.rdQLenPdf::6                       0                       # What read queue length does an incoming req see
system.mem_ctrls.rdQLenPdf::7                       0                       # What read queue length does an incoming req see
system.mem_ctrls.rdQLenPdf::8                       0                       # What read queue length does an incoming req see
system.mem_ctrls.rdQLenPdf::9                       0                       # What read queue length does an incoming req see
system.mem_ctrls.rdQLenPdf::10                      0                       # What read queue length does an incoming req see
system.mem_ctrls.rdQLenPdf::11                      0                       # What read queue length does an incoming req see
system.mem_ctrls.rdQLenPdf::12                      0                       # What read queue length does an incoming req see
system.mem_ctrls.rdQLenPdf::13                      0                       # What read queue length does an incoming req see
system.mem_ctrls.rdQLenPdf::14                      0                       # What read queue length does an incoming req see
system.mem_ctrls.rdQLenPdf::15                      0                       # What read queue length does an incoming req see
system.mem_ctrls.rdQLenPdf::16                      0                       # What read queue length does an incoming req see
system.mem_ctrls.rdQLenPdf::17                      0                       # What read queue length does an incoming req see
system.mem_ctrls.rdQLenPdf::18                      0                       # What read queue length does an incoming req see
system.mem_ctrls.rdQLenPdf::19                      0                       # What read queue length does an incoming req see
system.mem_ctrls.rdQLenPdf::20                      0                       # What read queue length does an incoming req see
system.mem_ctrls.rdQLenPdf::21                      0                       # What read queue length does an incoming req see
system.mem_ctrls.rdQLenPdf::22                      0                       # What read queue length does an incoming req see
system.mem_ctrls.rdQLenPdf::23                      0                       # What read queue length does an incoming req see
system.mem_ctrls.rdQLenPdf::24                      0                       # What read queue length does an incoming req see
system.mem_ctrls.rdQLenPdf::25                      0                       # What read queue length does an incoming req see
system.mem_ctrls.rdQLenPdf::26                      0                       # What read queue length does an incoming req see
system.mem_ctrls.rdQLenPdf::27                      0                       # What read queue length does an incoming req see
system.mem_ctrls.rdQLenPdf::28                      0                       # What read queue length does an incoming req see
system.mem_ctrls.rdQLenPdf::29                      0                       # What read queue length does an incoming req see
system.mem_ctrls.rdQLenPdf::30                      0                       # What read queue length does an incoming req see
system.mem_ctrls.rdQLenPdf::31                      0                       # What read queue length does an incoming req see
system.mem_ctrls.wrQLenPdf::0                       0                       # What write queue length does an incoming req see
system.mem_ctrls.wrQLenPdf::1                       0                       # What write queue length does an incoming req see
system.mem_ctrls.wrQLenPdf::2                       0                       # What write queue length does an incoming req see
system.mem_ctrls.wrQLenPdf::3                       0                       # What write queue length does an incoming req see
system.mem_ctrls.wrQLenPdf::4                       0                       # What write queue length does an incoming req see
system.mem_ctrls.wrQLenPdf::5                       0                       # What write queue length does an incoming req see
system.mem_ctrls.wrQLenPdf::6                       0                       # What write queue length does an incoming req see
system.mem_ctrls.wrQLenPdf::7                       0                       # What write queue length does an incoming req see
system.mem_ctrls.wrQLenPdf::8                       0                       # What write queue length does an incoming req see
system.mem_ctrls.wrQLenPdf::9                       0                       # What write queue length does an incoming req see
system.mem_ctrls.wrQLenPdf::10                      0                       # What write queue length does an incoming req see
system.mem_ctrls.wrQLenPdf::11                      0                       # What write queue length does an incoming req see
system.mem_ctrls.wrQLenPdf::12                      0                       # What write queue length does an incoming req see
system.mem_ctrls.wrQLenPdf::13                      0                       # What write queue length does an incoming req see
system.mem_ctrls.wrQLenPdf::14                      0                       # What write queue length does an incoming req see
system.mem_ctrls.wrQLenPdf::15                      0                       # What write queue length does an incoming req see
system.mem_ctrls.wrQLenPdf::16                      0                       # What write queue length does an incoming req see
system.mem_ctrls.wrQLenPdf::17                      0                       # What write queue length does an incoming req see
system.mem_ctrls.wrQLenPdf::18                      0                       # What write queue length does an incoming req see
system.mem_ctrls.wrQLenPdf::19                      0                       # What write queue length does an incoming req see
system.mem_ctrls.wrQLenPdf::20                      0                       # What write queue length does an incoming req see
system.mem_ctrls.wrQLenPdf::21                      0                       # What write queue length does an incoming req see
system.mem_ctrls.wrQLenPdf::22                      0                       # What write queue length does an incoming req see
system.mem_ctrls.wrQLenPdf::23                      0                       # What write queue length does an incoming req see
system.mem_ctrls.wrQLenPdf::24                      0                       # What write queue length does an incoming req see
system.mem_ctrls.wrQLenPdf::25                      0                       # What write queue length does an incoming req see
system.mem_ctrls.wrQLenPdf::26                      0                       # What write queue length does an incoming req see
system.mem_ctrls.wrQLenPdf::27                      0                       # What write queue length does an incoming req see
system.mem_ctrls.wrQLenPdf::28                      0                       # What write queue length does an incoming req see
system.mem_ctrls.wrQLenPdf::29                      0                       # What write queue length does an incoming req see
system.mem_ctrls.wrQLenPdf::30                      0                       # What write queue length does an incoming req see
system.mem_ctrls.wrQLenPdf::31                      0                       # What write queue length does an incoming req see
system.mem_ctrls.wrQLenPdf::32                      0                       # What write queue length does an incoming req see
system.mem_ctrls.wrQLenPdf::33                      0                       # What write queue length does an incoming req see
system.mem_ctrls.wrQLenPdf::34                      0                       # What write queue length does an incoming req see
system.mem_ctrls.wrQLenPdf::35                      0                       # What write queue length does an incoming req see
system.mem_ctrls.wrQLenPdf::36                      0                       # What write queue length does an incoming req see
system.mem_ctrls.wrQLenPdf::37                      0                       # What write queue length does an incoming req see
system.mem_ctrls.wrQLenPdf::38                      0                       # What write queue length does an incoming req see
system.mem_ctrls.wrQLenPdf::39                      0                       # What write queue length does an incoming req see
system.mem_ctrls.wrQLenPdf::40                      0                       # What write queue length does an incoming req see
system.mem_ctrls.wrQLenPdf::41                      0                       # What write queue length does an incoming req see
system.mem_ctrls.wrQLenPdf::42                      0                       # What write queue length does an incoming req see
system.mem_ctrls.wrQLenPdf::43                      0                       # What write queue length does an incoming req see
system.mem_ctrls.wrQLenPdf::44                      0                       # What write queue length does an incoming req see
system.mem_ctrls.wrQLenPdf::45                      0                       # What write queue length does an incoming req see
system.mem_ctrls.wrQLenPdf::46                      0                       # What write queue length does an incoming req see
system.mem_ctrls.wrQLenPdf::47                      0                       # What write queue length does an incoming req see
system.mem_ctrls.wrQLenPdf::48                      0                       # What write queue length does an incoming req see
system.mem_ctrls.wrQLenPdf::49                      0                       # What write queue length does an incoming req see
system.mem_ctrls.wrQLenPdf::50                      0                       # What write queue length does an incoming req see
system.mem_ctrls.wrQLenPdf::51                      0                       # What write queue length does an incoming req see
system.mem_ctrls.wrQLenPdf::52                      0                       # What write queue length does an incoming req see
system.mem_ctrls.wrQLenPdf::53                      0                       # What write queue length does an incoming req see
system.mem_ctrls.wrQLenPdf::54                      0                       # What write queue length does an incoming req see
system.mem_ctrls.wrQLenPdf::55                      0                       # What write queue length does an incoming req see
system.mem_ctrls.wrQLenPdf::56                      0                       # What write queue length does an incoming req see
system.mem_ctrls.wrQLenPdf::57                      0                       # What write queue length does an incoming req see
system.mem_ctrls.wrQLenPdf::58                      0                       # What write queue length does an incoming req see
system.mem_ctrls.wrQLenPdf::59                      0                       # What write queue length does an incoming req see
system.mem_ctrls.wrQLenPdf::60                      0                       # What write queue length does an incoming req see
system.mem_ctrls.wrQLenPdf::61                      0                       # What write queue length does an incoming req see
system.mem_ctrls.wrQLenPdf::62                      0                       # What write queue length does an incoming req see
system.mem_ctrls.wrQLenPdf::63                      0                       # What write queue length does an incoming req see
system.mem_ctrls.bytesPerActivate::samples         1564                       # Bytes accessed per row activation
system.mem_ctrls.bytesPerActivate::mean    284.071611                       # Bytes accessed per row activation
system.mem_ctrls.bytesPerActivate::gmean   174.785434                       # Bytes accessed per row activation
system.mem_ctrls.bytesPerActivate::stdev   339.348448                       # Bytes accessed per row activation
system.mem_ctrls.bytesPerActivate::0-127          219     14.00%     14.00% # Bytes accessed per row activation
system.mem_ctrls.bytesPerActivate::128-255         1003     64.13%     78.13% # Bytes accessed per row activation
system.mem_ctrls.bytesPerActivate::256-383           34      2.17%     80.31% # Bytes accessed per row activation
system.mem_ctrls.bytesPerActivate::384-511           17      1.09%     81.39% # Bytes accessed per row activation
system.mem_ctrls.bytesPerActivate::512-639           11      0.70%     82.10% # Bytes accessed per row activation
system.mem_ctrls.bytesPerActivate::640-767           13      0.83%     82.93% # Bytes accessed per row activation
system.mem_ctrls.bytesPerActivate::768-895            8      0.51%     83.44% # Bytes accessed per row activation
system.mem_ctrls.bytesPerActivate::896-1023           10      0.64%     84.08% # Bytes accessed per row activation
system.mem_ctrls.bytesPerActivate::1024-1151          249     15.92%    100.00% # Bytes accessed per row activation
system.mem_ctrls.bytesPerActivate::total         1564                       # Bytes accessed per row activation
system.mem_ctrls.totQLat                     63104250                       # Total ticks spent queuing
system.mem_ctrls.totMemAccLat               193754250                       # Total ticks spent from burst creation until serviced by the DRAM
system.mem_ctrls.totBusLat                   34840000                       # Total ticks spent in databus transfers
system.mem_ctrls.avgQLat                      9056.29                       # Average queueing delay per DRAM burst
system.mem_ctrls.avgBusLat                    5000.00                       # Average bus latency per DRAM burst
system.mem_ctrls.avgMemAccLat                27806.29                       # Average memory access latency per DRAM burst
system.mem_ctrls.avgRdBW                       191.33                       # Average DRAM read bandwidth in MiByte/s
system.mem_ctrls.avgWrBW                         0.00                       # Average achieved write bandwidth in MiByte/s
system.mem_ctrls.avgRdBWSys                    191.33                       # Average system read bandwidth in MiByte/s
system.mem_ctrls.avgWrBWSys                      0.00                       # Average system write bandwidth in MiByte/s
system.mem_ctrls.peakBW                      12800.00                       # Theoretical peak bandwidth in MiByte/s
system.mem_ctrls.busUtil                         1.49                       # Data bus utilization in percentage
system.mem_ctrls.busUtilRead                     1.49                       # Data bus utilization in percentage for reads
system.mem_ctrls.busUtilWrite                    0.00                       # Data bus utilization in percentage for writes
system.mem_ctrls.avgRdQLen                       3.73                       # Average read queue length when enqueuing
system.mem_ctrls.avgWrQLen                       0.00                       # Average write queue length when enqueuing
system.mem_ctrls.readRowHits                     5394                       # Number of row buffer hits during reads
system.mem_ctrls.writeRowHits                       0                       # Number of row buffer hits during writes
system.mem_ctrls.readRowHitRate                 77.41                       # Row buffer hit rate for reads
system.mem_ctrls.writeRowHitRate                  nan                       # Row buffer hit rate for writes
system.mem_ctrls.avgGap                     334494.62                       # Average gap between requests
system.mem_ctrls.pageHitRate                    77.41                       # Row buffer hit rate, read and write combined
system.mem_ctrls_0.actEnergy                  6410880                       # Energy for activate commands per rank (pJ)
system.mem_ctrls_0.preEnergy                  3498000                       # Energy for precharge commands per rank (pJ)
system.mem_ctrls_0.readEnergy                29000400                       # Energy for read commands per rank (pJ)
system.mem_ctrls_0.writeEnergy                      0                       # Energy for write commands per rank (pJ)
system.mem_ctrls_0.refreshEnergy            152059440                       # Energy for refresh commands per rank (pJ)
system.mem_ctrls_0.actBackEnergy           1204500915                       # Energy for active background per rank (pJ)
system.mem_ctrls_0.preBackEnergy            340429500                       # Energy for precharge background per rank (pJ)
system.mem_ctrls_0.totalEnergy             1735899135                       # Total energy per rank (pJ)
system.mem_ctrls_0.averagePower            745.549452                       # Core power per rank (mW)
system.mem_ctrls_0.memoryStateTime::IDLE    558360750                       # Time in different power states
system.mem_ctrls_0.memoryStateTime::REF      77740000                       # Time in different power states
system.mem_ctrls_0.memoryStateTime::PRE_PDN            0                       # Time in different power states
system.mem_ctrls_0.memoryStateTime::ACT    1692261750                       # Time in different power states
system.mem_ctrls_0.memoryStateTime::ACT_PDN            0                       # Time in different power states
system.mem_ctrls_1.actEnergy                  5367600                       # Energy for activate commands per rank (pJ)
system.mem_ctrls_1.preEnergy                  2928750                       # Energy for precharge commands per rank (pJ)
system.mem_ctrls_1.readEnergy                24967800                       # Energy for read commands per rank (pJ)
system.mem_ctrls_1.writeEnergy                      0                       # Energy for write commands per rank (pJ)
system.mem_ctrls_1.refreshEnergy            152059440                       # Energy for refresh commands per rank (pJ)
system.mem_ctrls_1.actBackEnergy           1208172285                       # Energy for active background per rank (pJ)
system.mem_ctrls_1.preBackEnergy            337209000                       # Energy for precharge background per rank (pJ)
system.mem_ctrls_1.totalEnergy             1730704875                       # Total energy per rank (pJ)
system.mem_ctrls_1.averagePower            743.318575                       # Core power per rank (mW)
system.mem_ctrls_1.memoryStateTime::IDLE    553130500                       # Time in different power states
system.mem_ctrls_1.memoryStateTime::REF      77740000                       # Time in different power states
system.mem_ctrls_1.memoryStateTime::PRE_PDN            0                       # Time in different power states
system.mem_ctrls_1.memoryStateTime::ACT    1697672000                       # Time in different power states
system.mem_ctrls_1.memoryStateTime::ACT_PDN            0                       # Time in different power states
system.cpu0.branchPred.lookups                 589990                       # Number of BP lookups
system.cpu0.branchPred.condPredicted           587619                       # Number of conditional branches predicted
system.cpu0.branchPred.condIncorrect             5325                       # Number of conditional branches incorrect
system.cpu0.branchPred.BTBLookups              587848                       # Number of BTB lookups
system.cpu0.branchPred.BTBHits                 584340                       # Number of BTB hits
system.cpu0.branchPred.BTBCorrect                   0                       # Number of correct BTB predictions (this stat may not work properly.
system.cpu0.branchPred.BTBHitPct            99.403247                       # BTB Hit Percentage
system.cpu0.branchPred.usedRAS                    800                       # Number of times the RAS was used to get a target.
system.cpu0.branchPred.RASInCorrect                12                       # Number of incorrect RAS predictions.
system.cpu_voltage_domain.voltage                   1                       # Voltage in Volts
system.cpu_clk_domain.clock                       500                       # Clock period in ticks
system.cpu0.dstage2_mmu.stage2_tlb.walker.walks            0                       # Table walker walks requested
system.cpu0.dstage2_mmu.stage2_tlb.walker.walkRequestOrigin_Requested::Data            0                       # Table walker requests started/completed, data/inst
system.cpu0.dstage2_mmu.stage2_tlb.walker.walkRequestOrigin_Requested::Inst            0                       # Table walker requests started/completed, data/inst
system.cpu0.dstage2_mmu.stage2_tlb.walker.walkRequestOrigin_Requested::total            0                       # Table walker requests started/completed, data/inst
system.cpu0.dstage2_mmu.stage2_tlb.walker.walkRequestOrigin_Completed::Data            0                       # Table walker requests started/completed, data/inst
system.cpu0.dstage2_mmu.stage2_tlb.walker.walkRequestOrigin_Completed::Inst            0                       # Table walker requests started/completed, data/inst
system.cpu0.dstage2_mmu.stage2_tlb.walker.walkRequestOrigin_Completed::total            0                       # Table walker requests started/completed, data/inst
system.cpu0.dstage2_mmu.stage2_tlb.walker.walkRequestOrigin::total            0                       # Table walker requests started/completed, data/inst
system.cpu0.dstage2_mmu.stage2_tlb.inst_hits            0                       # ITB inst hits
system.cpu0.dstage2_mmu.stage2_tlb.inst_misses            0                       # ITB inst misses
system.cpu0.dstage2_mmu.stage2_tlb.read_hits            0                       # DTB read hits
system.cpu0.dstage2_mmu.stage2_tlb.read_misses            0                       # DTB read misses
system.cpu0.dstage2_mmu.stage2_tlb.write_hits            0                       # DTB write hits
system.cpu0.dstage2_mmu.stage2_tlb.write_misses            0                       # DTB write misses
system.cpu0.dstage2_mmu.stage2_tlb.flush_tlb            0                       # Number of times complete TLB was flushed
system.cpu0.dstage2_mmu.stage2_tlb.flush_tlb_mva            0                       # Number of times TLB was flushed by MVA
system.cpu0.dstage2_mmu.stage2_tlb.flush_tlb_mva_asid            0                       # Number of times TLB was flushed by MVA & ASID
system.cpu0.dstage2_mmu.stage2_tlb.flush_tlb_asid            0                       # Number of times TLB was flushed by ASID
system.cpu0.dstage2_mmu.stage2_tlb.flush_entries            0                       # Number of entries that have been flushed from TLB
system.cpu0.dstage2_mmu.stage2_tlb.align_faults            0                       # Number of TLB faults due to alignment restrictions
system.cpu0.dstage2_mmu.stage2_tlb.prefetch_faults            0                       # Number of TLB faults due to prefetch
system.cpu0.dstage2_mmu.stage2_tlb.domain_faults            0                       # Number of TLB faults due to domain restrictions
system.cpu0.dstage2_mmu.stage2_tlb.perms_faults            0                       # Number of TLB faults due to permissions restrictions
system.cpu0.dstage2_mmu.stage2_tlb.read_accesses            0                       # DTB read accesses
system.cpu0.dstage2_mmu.stage2_tlb.write_accesses            0                       # DTB write accesses
system.cpu0.dstage2_mmu.stage2_tlb.inst_accesses            0                       # ITB inst accesses
system.cpu0.dstage2_mmu.stage2_tlb.hits             0                       # DTB hits
system.cpu0.dstage2_mmu.stage2_tlb.misses            0                       # DTB misses
system.cpu0.dstage2_mmu.stage2_tlb.accesses            0                       # DTB accesses
system.cpu0.dtb.walker.walks                        0                       # Table walker walks requested
system.cpu0.dtb.walker.walkRequestOrigin_Requested::Data            0                       # Table walker requests started/completed, data/inst
system.cpu0.dtb.walker.walkRequestOrigin_Requested::Inst            0                       # Table walker requests started/completed, data/inst
system.cpu0.dtb.walker.walkRequestOrigin_Requested::total            0                       # Table walker requests started/completed, data/inst
system.cpu0.dtb.walker.walkRequestOrigin_Completed::Data            0                       # Table walker requests started/completed, data/inst
system.cpu0.dtb.walker.walkRequestOrigin_Completed::Inst            0                       # Table walker requests started/completed, data/inst
system.cpu0.dtb.walker.walkRequestOrigin_Completed::total            0                       # Table walker requests started/completed, data/inst
system.cpu0.dtb.walker.walkRequestOrigin::total            0                       # Table walker requests started/completed, data/inst
system.cpu0.dtb.inst_hits                           0                       # ITB inst hits
system.cpu0.dtb.inst_misses                         0                       # ITB inst misses
system.cpu0.dtb.read_hits                           0                       # DTB read hits
system.cpu0.dtb.read_misses                         0                       # DTB read misses
system.cpu0.dtb.write_hits                          0                       # DTB write hits
system.cpu0.dtb.write_misses                        0                       # DTB write misses
system.cpu0.dtb.flush_tlb                           0                       # Number of times complete TLB was flushed
system.cpu0.dtb.flush_tlb_mva                       0                       # Number of times TLB was flushed by MVA
system.cpu0.dtb.flush_tlb_mva_asid                  0                       # Number of times TLB was flushed by MVA & ASID
system.cpu0.dtb.flush_tlb_asid                      0                       # Number of times TLB was flushed by ASID
system.cpu0.dtb.flush_entries                       0                       # Number of entries that have been flushed from TLB
system.cpu0.dtb.align_faults                        0                       # Number of TLB faults due to alignment restrictions
system.cpu0.dtb.prefetch_faults                     0                       # Number of TLB faults due to prefetch
system.cpu0.dtb.domain_faults                       0                       # Number of TLB faults due to domain restrictions
system.cpu0.dtb.perms_faults                        0                       # Number of TLB faults due to permissions restrictions
system.cpu0.dtb.read_accesses                       0                       # DTB read accesses
system.cpu0.dtb.write_accesses                      0                       # DTB write accesses
system.cpu0.dtb.inst_accesses                       0                       # ITB inst accesses
system.cpu0.dtb.hits                                0                       # DTB hits
system.cpu0.dtb.misses                              0                       # DTB misses
system.cpu0.dtb.accesses                            0                       # DTB accesses
system.cpu0.istage2_mmu.stage2_tlb.walker.walks            0                       # Table walker walks requested
system.cpu0.istage2_mmu.stage2_tlb.walker.walkRequestOrigin_Requested::Data            0                       # Table walker requests started/completed, data/inst
system.cpu0.istage2_mmu.stage2_tlb.walker.walkRequestOrigin_Requested::Inst            0                       # Table walker requests started/completed, data/inst
system.cpu0.istage2_mmu.stage2_tlb.walker.walkRequestOrigin_Requested::total            0                       # Table walker requests started/completed, data/inst
system.cpu0.istage2_mmu.stage2_tlb.walker.walkRequestOrigin_Completed::Data            0                       # Table walker requests started/completed, data/inst
system.cpu0.istage2_mmu.stage2_tlb.walker.walkRequestOrigin_Completed::Inst            0                       # Table walker requests started/completed, data/inst
system.cpu0.istage2_mmu.stage2_tlb.walker.walkRequestOrigin_Completed::total            0                       # Table walker requests started/completed, data/inst
system.cpu0.istage2_mmu.stage2_tlb.walker.walkRequestOrigin::total            0                       # Table walker requests started/completed, data/inst
system.cpu0.istage2_mmu.stage2_tlb.inst_hits            0                       # ITB inst hits
system.cpu0.istage2_mmu.stage2_tlb.inst_misses            0                       # ITB inst misses
system.cpu0.istage2_mmu.stage2_tlb.read_hits            0                       # DTB read hits
system.cpu0.istage2_mmu.stage2_tlb.read_misses            0                       # DTB read misses
system.cpu0.istage2_mmu.stage2_tlb.write_hits            0                       # DTB write hits
system.cpu0.istage2_mmu.stage2_tlb.write_misses            0                       # DTB write misses
system.cpu0.istage2_mmu.stage2_tlb.flush_tlb            0                       # Number of times complete TLB was flushed
system.cpu0.istage2_mmu.stage2_tlb.flush_tlb_mva            0                       # Number of times TLB was flushed by MVA
system.cpu0.istage2_mmu.stage2_tlb.flush_tlb_mva_asid            0                       # Number of times TLB was flushed by MVA & ASID
system.cpu0.istage2_mmu.stage2_tlb.flush_tlb_asid            0                       # Number of times TLB was flushed by ASID
system.cpu0.istage2_mmu.stage2_tlb.flush_entries            0                       # Number of entries that have been flushed from TLB
system.cpu0.istage2_mmu.stage2_tlb.align_faults            0                       # Number of TLB faults due to alignment restrictions
system.cpu0.istage2_mmu.stage2_tlb.prefetch_faults            0                       # Number of TLB faults due to prefetch
system.cpu0.istage2_mmu.stage2_tlb.domain_faults            0                       # Number of TLB faults due to domain restrictions
system.cpu0.istage2_mmu.stage2_tlb.perms_faults            0                       # Number of TLB faults due to permissions restrictions
system.cpu0.istage2_mmu.stage2_tlb.read_accesses            0                       # DTB read accesses
system.cpu0.istage2_mmu.stage2_tlb.write_accesses            0                       # DTB write accesses
system.cpu0.istage2_mmu.stage2_tlb.inst_accesses            0                       # ITB inst accesses
system.cpu0.istage2_mmu.stage2_tlb.hits             0                       # DTB hits
system.cpu0.istage2_mmu.stage2_tlb.misses            0                       # DTB misses
system.cpu0.istage2_mmu.stage2_tlb.accesses            0                       # DTB accesses
system.cpu0.itb.walker.walks                        0                       # Table walker walks requested
system.cpu0.itb.walker.walkRequestOrigin_Requested::Data            0                       # Table walker requests started/completed, data/inst
system.cpu0.itb.walker.walkRequestOrigin_Requested::Inst            0                       # Table walker requests started/completed, data/inst
system.cpu0.itb.walker.walkRequestOrigin_Requested::total            0                       # Table walker requests started/completed, data/inst
system.cpu0.itb.walker.walkRequestOrigin_Completed::Data            0                       # Table walker requests started/completed, data/inst
system.cpu0.itb.walker.walkRequestOrigin_Completed::Inst            0                       # Table walker requests started/completed, data/inst
system.cpu0.itb.walker.walkRequestOrigin_Completed::total            0                       # Table walker requests started/completed, data/inst
system.cpu0.itb.walker.walkRequestOrigin::total            0                       # Table walker requests started/completed, data/inst
system.cpu0.itb.inst_hits                           0                       # ITB inst hits
system.cpu0.itb.inst_misses                         0                       # ITB inst misses
system.cpu0.itb.read_hits                           0                       # DTB read hits
system.cpu0.itb.read_misses                         0                       # DTB read misses
system.cpu0.itb.write_hits                          0                       # DTB write hits
system.cpu0.itb.write_misses                        0                       # DTB write misses
system.cpu0.itb.flush_tlb                           0                       # Number of times complete TLB was flushed
system.cpu0.itb.flush_tlb_mva                       0                       # Number of times TLB was flushed by MVA
system.cpu0.itb.flush_tlb_mva_asid                  0                       # Number of times TLB was flushed by MVA & ASID
system.cpu0.itb.flush_tlb_asid                      0                       # Number of times TLB was flushed by ASID
system.cpu0.itb.flush_entries                       0                       # Number of entries that have been flushed from TLB
system.cpu0.itb.align_faults                        0                       # Number of TLB faults due to alignment restrictions
system.cpu0.itb.prefetch_faults                     0                       # Number of TLB faults due to prefetch
system.cpu0.itb.domain_faults                       0                       # Number of TLB faults due to domain restrictions
system.cpu0.itb.perms_faults                        0                       # Number of TLB faults due to permissions restrictions
system.cpu0.itb.read_accesses                       0                       # DTB read accesses
system.cpu0.itb.write_accesses                      0                       # DTB write accesses
system.cpu0.itb.inst_accesses                       0                       # ITB inst accesses
system.cpu0.itb.hits                                0                       # DTB hits
system.cpu0.itb.misses                              0                       # DTB misses
system.cpu0.itb.accesses                            0                       # DTB accesses
system.cpu0.workload.num_syscalls                  64                       # Number of system calls
system.cpu0.numCycles                         4661605                       # number of cpu cycles simulated
system.cpu0.numWorkItemsStarted                     0                       # number of work items this cpu started
system.cpu0.numWorkItemsCompleted                   0                       # number of work items this cpu completed
system.cpu0.fetch.icacheStallCycles           1151052                       # Number of cycles fetch is stalled on an Icache miss
system.cpu0.fetch.Insts                       8599643                       # Number of instructions fetch has processed
system.cpu0.fetch.Branches                     589990                       # Number of branches that fetch encountered
system.cpu0.fetch.predictedBranches            585140                       # Number of branches that fetch has predicted taken
system.cpu0.fetch.Cycles                      3463114                       # Number of cycles fetch has run and was not squashing or blocked
system.cpu0.fetch.SquashCycles                  10753                       # Number of cycles fetch has spent squashing
system.cpu0.fetch.PendingTrapStallCycles            4                       # Number of stall cycles due to pending traps
system.cpu0.fetch.CacheLines                  1135223                       # Number of cache lines fetched
system.cpu0.fetch.IcacheSquashes                 2163                       # Number of outstanding Icache misses that were squashed
system.cpu0.fetch.rateDist::samples           4619546                       # Number of instructions fetched each cycle (Total)
system.cpu0.fetch.rateDist::mean             1.864048                       # Number of instructions fetched each cycle (Total)
system.cpu0.fetch.rateDist::stdev            2.845945                       # Number of instructions fetched each cycle (Total)
system.cpu0.fetch.rateDist::underflows              0      0.00%      0.00% # Number of instructions fetched each cycle (Total)
system.cpu0.fetch.rateDist::0                 2944089     63.73%     63.73% # Number of instructions fetched each cycle (Total)
system.cpu0.fetch.rateDist::1                  156196      3.38%     67.11% # Number of instructions fetched each cycle (Total)
system.cpu0.fetch.rateDist::2                  171127      3.70%     70.82% # Number of instructions fetched each cycle (Total)
system.cpu0.fetch.rateDist::3                  151350      3.28%     74.09% # Number of instructions fetched each cycle (Total)
system.cpu0.fetch.rateDist::4                  178080      3.85%     77.95% # Number of instructions fetched each cycle (Total)
system.cpu0.fetch.rateDist::5                  156164      3.38%     81.33% # Number of instructions fetched each cycle (Total)
system.cpu0.fetch.rateDist::6                  165879      3.59%     84.92% # Number of instructions fetched each cycle (Total)
system.cpu0.fetch.rateDist::7                  403146      8.73%     93.65% # Number of instructions fetched each cycle (Total)
system.cpu0.fetch.rateDist::8                  293515      6.35%    100.00% # Number of instructions fetched each cycle (Total)
system.cpu0.fetch.rateDist::overflows               0      0.00%    100.00% # Number of instructions fetched each cycle (Total)
system.cpu0.fetch.rateDist::min_value               0                       # Number of instructions fetched each cycle (Total)
system.cpu0.fetch.rateDist::max_value               8                       # Number of instructions fetched each cycle (Total)
system.cpu0.fetch.rateDist::total             4619546                       # Number of instructions fetched each cycle (Total)
system.cpu0.fetch.branchRate                 0.126564                       # Number of branch fetches per cycle
system.cpu0.fetch.rate                       1.844782                       # Number of inst fetches per cycle
system.cpu0.decode.IdleCycles                  397095                       # Number of cycles decode is idle
system.cpu0.decode.BlockedCycles              3145362                       # Number of cycles decode is blocked
system.cpu0.decode.RunCycles                   100155                       # Number of cycles decode is running
system.cpu0.decode.UnblockCycles               971869                       # Number of cycles decode is unblocking
system.cpu0.decode.SquashCycles                  5065                       # Number of cycles decode is squashing
system.cpu0.decode.BranchResolved                1092                       # Number of times decode resolved a branch
system.cpu0.decode.BranchMispred                  323                       # Number of times decode detected a branch misprediction
system.cpu0.decode.DecodedInsts               8457079                       # Number of instructions handled by decode
system.cpu0.decode.SquashedInsts                 1183                       # Number of squashed instructions handled by decode
system.cpu0.rename.SquashCycles                  5065                       # Number of cycles rename is squashing
system.cpu0.rename.IdleCycles                  709559                       # Number of cycles rename is idle
system.cpu0.rename.BlockCycles                 269060                       # Number of cycles rename is blocking
system.cpu0.rename.serializeStallCycles          9701                       # count of cycles rename stalled for serializing inst
system.cpu0.rename.RunCycles                   756290                       # Number of cycles rename is running
system.cpu0.rename.UnblockCycles              2869871                       # Number of cycles rename is unblocking
system.cpu0.rename.RenamedInsts               8431886                       # Number of instructions processed by rename
system.cpu0.rename.ROBFullEvents                    2                       # Number of times rename has blocked due to ROB full
system.cpu0.rename.IQFullEvents               2549150                       # Number of times rename has blocked due to IQ full
system.cpu0.rename.LQFullEvents                  1113                       # Number of times rename has blocked due to LQ full
system.cpu0.rename.SQFullEvents                257534                       # Number of times rename has blocked due to SQ full
system.cpu0.rename.RenamedOperands           11057885                       # Number of destination operands rename has renamed
system.cpu0.rename.RenameLookups             41541417                       # Number of register rename lookups that rename has made
system.cpu0.rename.int_rename_lookups        13994383                       # Number of integer rename lookups
system.cpu0.rename.fp_rename_lookups               22                       # Number of floating rename lookups
system.cpu0.rename.CommittedMaps             10848626                       # Number of HB maps that are committed
system.cpu0.rename.UndoneMaps                  209259                       # Number of HB maps that are undone due to squashing
system.cpu0.rename.serializingInsts               136                       # count of serializing insts renamed
system.cpu0.rename.tempSerializingInsts           137                       # count of temporary serializing insts renamed
system.cpu0.rename.skidInsts                  4903612                       # count of insts added to the skid buffer
system.cpu0.memDep0.insertedLoads             2156196                       # Number of loads inserted to the mem dependence unit.
system.cpu0.memDep0.insertedStores              83602                       # Number of stores inserted to the mem dependence unit.
system.cpu0.memDep0.conflictingLoads             8812                       # Number of conflicting loads.
system.cpu0.memDep0.conflictingStores             426                       # Number of conflicting stores.
system.cpu0.iq.iqInstsAdded                   8408128                       # Number of instructions added to the IQ (excludes non-spec)
system.cpu0.iq.iqNonSpecInstsAdded                277                       # Number of non-speculative instructions added to the IQ
system.cpu0.iq.iqInstsIssued                  8792775                       # Number of instructions issued
system.cpu0.iq.iqSquashedInstsIssued            18190                       # Number of squashed instructions issued
system.cpu0.iq.iqSquashedInstsExamined         141516                       # Number of squashed instructions iterated over during squash; mainly for profiling
system.cpu0.iq.iqSquashedOperandsExamined       646880                       # Number of squashed operands that are examined and possibly removed from graph
system.cpu0.iq.iqSquashedNonSpecRemoved            85                       # Number of squashed non-spec instructions that were removed
system.cpu0.iq.issued_per_cycle::samples      4619546                       # Number of insts issued each cycle
system.cpu0.iq.issued_per_cycle::mean        1.903385                       # Number of insts issued each cycle
system.cpu0.iq.issued_per_cycle::stdev       0.421234                       # Number of insts issued each cycle
system.cpu0.iq.issued_per_cycle::underflows            0      0.00%      0.00% # Number of insts issued each cycle
system.cpu0.iq.issued_per_cycle::0             208244      4.51%      4.51% # Number of insts issued each cycle
system.cpu0.iq.issued_per_cycle::1              29829      0.65%      5.15% # Number of insts issued each cycle
system.cpu0.iq.issued_per_cycle::2            4381473     94.85%    100.00% # Number of insts issued each cycle
system.cpu0.iq.issued_per_cycle::overflows            0      0.00%    100.00% # Number of insts issued each cycle
system.cpu0.iq.issued_per_cycle::min_value            0                       # Number of insts issued each cycle
system.cpu0.iq.issued_per_cycle::max_value            2                       # Number of insts issued each cycle
system.cpu0.iq.issued_per_cycle::total        4619546                       # Number of insts issued each cycle
system.cpu0.iq.fu_full::No_OpClass                  0                       # attempts to use FU when none available
system.cpu0.iq.fu_full::IntAlu                      0                       # attempts to use FU when none available
system.cpu0.iq.fu_full::IntMult                     0                       # attempts to use FU when none available
system.cpu0.iq.fu_full::IntDiv                      0                       # attempts to use FU when none available
system.cpu0.iq.fu_full::FloatAdd                    0                       # attempts to use FU when none available
system.cpu0.iq.fu_full::FloatCmp                    0                       # attempts to use FU when none available
system.cpu0.iq.fu_full::FloatCvt                    0                       # attempts to use FU when none available
system.cpu0.iq.fu_full::FloatMult                   0                       # attempts to use FU when none available
system.cpu0.iq.fu_full::FloatDiv                    0                       # attempts to use FU when none available
system.cpu0.iq.fu_full::FloatSqrt                   0                       # attempts to use FU when none available
system.cpu0.iq.fu_full::SimdAdd                     0                       # attempts to use FU when none available
system.cpu0.iq.fu_full::SimdAddAcc                  0                       # attempts to use FU when none available
system.cpu0.iq.fu_full::SimdAlu                     0                       # attempts to use FU when none available
system.cpu0.iq.fu_full::SimdCmp                     0                       # attempts to use FU when none available
system.cpu0.iq.fu_full::SimdCvt                     0                       # attempts to use FU when none available
system.cpu0.iq.fu_full::SimdMisc                    0                       # attempts to use FU when none available
system.cpu0.iq.fu_full::SimdMult                    0                       # attempts to use FU when none available
system.cpu0.iq.fu_full::SimdMultAcc                 0                       # attempts to use FU when none available
system.cpu0.iq.fu_full::SimdShift                   0                       # attempts to use FU when none available
system.cpu0.iq.fu_full::SimdShiftAcc                0                       # attempts to use FU when none available
system.cpu0.iq.fu_full::SimdSqrt                    0                       # attempts to use FU when none available
system.cpu0.iq.fu_full::SimdFloatAdd                0                       # attempts to use FU when none available
system.cpu0.iq.fu_full::SimdFloatAlu                0                       # attempts to use FU when none available
system.cpu0.iq.fu_full::SimdFloatCmp                0                       # attempts to use FU when none available
system.cpu0.iq.fu_full::SimdFloatCvt                0                       # attempts to use FU when none available
system.cpu0.iq.fu_full::SimdFloatDiv                0                       # attempts to use FU when none available
system.cpu0.iq.fu_full::SimdFloatMisc               0                       # attempts to use FU when none available
system.cpu0.iq.fu_full::SimdFloatMult               0                       # attempts to use FU when none available
system.cpu0.iq.fu_full::SimdFloatMultAcc            0                       # attempts to use FU when none available
system.cpu0.iq.fu_full::SimdFloatSqrt               0                       # attempts to use FU when none available
system.cpu0.iq.fu_full::MemRead                     0                       # attempts to use FU when none available
system.cpu0.iq.fu_full::MemWrite                    0                       # attempts to use FU when none available
system.cpu0.iq.fu_full::IprAccess                   0                       # attempts to use FU when none available
system.cpu0.iq.fu_full::InstPrefetch                0                       # attempts to use FU when none available
system.cpu0.iq.FU_type_0::No_OpClass                0      0.00%      0.00% # Type of FU issued
system.cpu0.iq.FU_type_0::IntAlu              4471541     50.85%     50.85% # Type of FU issued
system.cpu0.iq.FU_type_0::IntMult             1605923     18.26%     69.12% # Type of FU issued
system.cpu0.iq.FU_type_0::IntDiv                    0      0.00%     69.12% # Type of FU issued
system.cpu0.iq.FU_type_0::FloatAdd                  0      0.00%     69.12% # Type of FU issued
system.cpu0.iq.FU_type_0::FloatCmp                  0      0.00%     69.12% # Type of FU issued
system.cpu0.iq.FU_type_0::FloatCvt                  0      0.00%     69.12% # Type of FU issued
system.cpu0.iq.FU_type_0::FloatMult                 0      0.00%     69.12% # Type of FU issued
system.cpu0.iq.FU_type_0::FloatDiv                  0      0.00%     69.12% # Type of FU issued
system.cpu0.iq.FU_type_0::FloatSqrt                 0      0.00%     69.12% # Type of FU issued
system.cpu0.iq.FU_type_0::SimdAdd                   0      0.00%     69.12% # Type of FU issued
system.cpu0.iq.FU_type_0::SimdAddAcc                0      0.00%     69.12% # Type of FU issued
system.cpu0.iq.FU_type_0::SimdAlu                   0      0.00%     69.12% # Type of FU issued
system.cpu0.iq.FU_type_0::SimdCmp                   0      0.00%     69.12% # Type of FU issued
system.cpu0.iq.FU_type_0::SimdCvt                   0      0.00%     69.12% # Type of FU issued
system.cpu0.iq.FU_type_0::SimdMisc                  0      0.00%     69.12% # Type of FU issued
system.cpu0.iq.FU_type_0::SimdMult                  0      0.00%     69.12% # Type of FU issued
system.cpu0.iq.FU_type_0::SimdMultAcc               0      0.00%     69.12% # Type of FU issued
system.cpu0.iq.FU_type_0::SimdShift                 0      0.00%     69.12% # Type of FU issued
system.cpu0.iq.FU_type_0::SimdShiftAcc              0      0.00%     69.12% # Type of FU issued
system.cpu0.iq.FU_type_0::SimdSqrt                  0      0.00%     69.12% # Type of FU issued
system.cpu0.iq.FU_type_0::SimdFloatAdd              0      0.00%     69.12% # Type of FU issued
system.cpu0.iq.FU_type_0::SimdFloatAlu              0      0.00%     69.12% # Type of FU issued
system.cpu0.iq.FU_type_0::SimdFloatCmp              0      0.00%     69.12% # Type of FU issued
system.cpu0.iq.FU_type_0::SimdFloatCvt              0      0.00%     69.12% # Type of FU issued
system.cpu0.iq.FU_type_0::SimdFloatDiv              0      0.00%     69.12% # Type of FU issued
system.cpu0.iq.FU_type_0::SimdFloatMisc             3      0.00%     69.12% # Type of FU issued
system.cpu0.iq.FU_type_0::SimdFloatMult             0      0.00%     69.12% # Type of FU issued
system.cpu0.iq.FU_type_0::SimdFloatMultAcc            0      0.00%     69.12% # Type of FU issued
system.cpu0.iq.FU_type_0::SimdFloatSqrt             0      0.00%     69.12% # Type of FU issued
system.cpu0.iq.FU_type_0::MemRead             2633231     29.95%     99.07% # Type of FU issued
system.cpu0.iq.FU_type_0::MemWrite              82077      0.93%    100.00% # Type of FU issued
system.cpu0.iq.FU_type_0::IprAccess                 0      0.00%    100.00% # Type of FU issued
system.cpu0.iq.FU_type_0::InstPrefetch              0      0.00%    100.00% # Type of FU issued
system.cpu0.iq.FU_type_0::total               8792775                       # Type of FU issued
system.cpu0.iq.rate                          1.886212                       # Inst issue rate
system.cpu0.iq.fu_busy_cnt                          0                       # FU busy when requested
system.cpu0.iq.fu_busy_rate                         0                       # FU busy rate (busy events/executed inst)
system.cpu0.iq.int_inst_queue_reads          22223230                       # Number of integer instruction queue reads
system.cpu0.iq.int_inst_queue_writes          8549929                       # Number of integer instruction queue writes
system.cpu0.iq.int_inst_queue_wakeup_accesses      8276494                       # Number of integer instruction queue wakeup accesses
system.cpu0.iq.fp_inst_queue_reads                 56                       # Number of floating instruction queue reads
system.cpu0.iq.fp_inst_queue_writes                28                       # Number of floating instruction queue writes
system.cpu0.iq.fp_inst_queue_wakeup_accesses           28                       # Number of floating instruction queue wakeup accesses
system.cpu0.iq.int_alu_accesses               8792747                       # Number of integer alu accesses
system.cpu0.iq.fp_alu_accesses                     28                       # Number of floating point alu accesses
system.cpu0.iew.lsq.thread0.forwLoads              95                       # Number of loads that had data forwarded from stores
system.cpu0.iew.lsq.thread0.invAddrLoads            0                       # Number of loads ignored due to an invalid address
system.cpu0.iew.lsq.thread0.squashedLoads        39451                       # Number of loads squashed
system.cpu0.iew.lsq.thread0.ignoredResponses            3                       # Number of memory responses ignored because the instruction is squashed
system.cpu0.iew.lsq.thread0.memOrderViolation           36                       # Number of memory ordering violations
system.cpu0.iew.lsq.thread0.squashedStores         1887                       # Number of stores squashed
system.cpu0.iew.lsq.thread0.invAddrSwpfs            0                       # Number of software prefetches ignored due to an invalid address
system.cpu0.iew.lsq.thread0.blockedLoads            0                       # Number of blocked loads due to partial load-store forwarding
system.cpu0.iew.lsq.thread0.rescheduledLoads           34                       # Number of loads that were rescheduled
system.cpu0.iew.lsq.thread0.cacheBlocked       512136                       # Number of times an access to memory failed due to the cache being blocked
system.cpu0.iew.iewIdleCycles                       0                       # Number of cycles IEW is idle
system.cpu0.iew.iewSquashCycles                  5065                       # Number of cycles IEW is squashing
system.cpu0.iew.iewBlockCycles                  21402                       # Number of cycles IEW is blocking
system.cpu0.iew.iewUnblockCycles                  330                       # Number of cycles IEW is unblocking
system.cpu0.iew.iewDispatchedInsts            8408412                       # Number of instructions dispatched to IQ
system.cpu0.iew.iewDispSquashedInsts             1130                       # Number of squashed instructions skipped by dispatch
system.cpu0.iew.iewDispLoadInsts              2156196                       # Number of dispatched load instructions
system.cpu0.iew.iewDispStoreInsts               83602                       # Number of dispatched store instructions
system.cpu0.iew.iewDispNonSpecInsts               127                       # Number of dispatched non-speculative instructions
system.cpu0.iew.iewIQFullEvents                    40                       # Number of times the IQ has become full, causing a stall
system.cpu0.iew.iewLSQFullEvents                   86                       # Number of times the LSQ has become full, causing a stall
system.cpu0.iew.memOrderViolationEvents            36                       # Number of memory order violations
system.cpu0.iew.predictedTakenIncorrect          4506                       # Number of branches that were predicted taken incorrectly
system.cpu0.iew.predictedNotTakenIncorrect          544                       # Number of branches that were predicted not taken incorrectly
system.cpu0.iew.branchMispredicts                5050                       # Number of branch mispredicts detected at execute
system.cpu0.iew.iewExecutedInsts              8789321                       # Number of executed instructions
system.cpu0.iew.iewExecLoadInsts              2630442                       # Number of load instructions executed
system.cpu0.iew.iewExecSquashedInsts             3454                       # Number of squashed instructions skipped in execute
system.cpu0.iew.exec_swp                            0                       # number of swp insts executed
system.cpu0.iew.exec_nop                            7                       # number of nop insts executed
system.cpu0.iew.exec_refs                     2712408                       # number of memory reference insts executed
system.cpu0.iew.exec_branches                  565258                       # Number of branches executed
system.cpu0.iew.exec_stores                     81966                       # Number of stores executed
system.cpu0.iew.exec_rate                    1.885471                       # Inst execution rate
system.cpu0.iew.wb_sent                       8277391                       # cumulative count of insts sent to commit
system.cpu0.iew.wb_count                      8276522                       # cumulative count of insts written-back
system.cpu0.iew.wb_producers                  7607092                       # num instructions producing a value
system.cpu0.iew.wb_consumers                 12632768                       # num instructions consuming a value
system.cpu0.iew.wb_penalized                        0                       # number of instrctions required to write to 'other' IQ
system.cpu0.iew.wb_rate                      1.775466                       # insts written-back per cycle
system.cpu0.iew.wb_fanout                    0.602171                       # average fanout of values written-back
system.cpu0.iew.wb_penalized_rate                   0                       # fraction of instructions written-back that wrote to 'other' IQ
system.cpu0.commit.commitSquashedInsts         141526                       # The number of squashed insts skipped by commit
system.cpu0.commit.commitNonSpecStalls            192                       # The number of times commit has been forced to stall to communicate backwards
system.cpu0.commit.branchMispredicts             5014                       # The number of times a branch was mispredicted
system.cpu0.commit.committed_per_cycle::samples      4599177                       # Number of insts commited each cycle
system.cpu0.commit.committed_per_cycle::mean     1.797471                       # Number of insts commited each cycle
system.cpu0.commit.committed_per_cycle::stdev     2.403021                       # Number of insts commited each cycle
system.cpu0.commit.committed_per_cycle::underflows            0      0.00%      0.00% # Number of insts commited each cycle
system.cpu0.commit.committed_per_cycle::0      1792952     38.98%     38.98% # Number of insts commited each cycle
system.cpu0.commit.committed_per_cycle::1      1166509     25.36%     64.35% # Number of insts commited each cycle
system.cpu0.commit.committed_per_cycle::2       553516     12.04%     76.38% # Number of insts commited each cycle
system.cpu0.commit.committed_per_cycle::3       386320      8.40%     84.78% # Number of insts commited each cycle
system.cpu0.commit.committed_per_cycle::4         4771      0.10%     84.89% # Number of insts commited each cycle
system.cpu0.commit.committed_per_cycle::5       180538      3.93%     88.81% # Number of insts commited each cycle
system.cpu0.commit.committed_per_cycle::6        48502      1.05%     89.87% # Number of insts commited each cycle
system.cpu0.commit.committed_per_cycle::7       106950      2.33%     92.19% # Number of insts commited each cycle
system.cpu0.commit.committed_per_cycle::8       359119      7.81%    100.00% # Number of insts commited each cycle
system.cpu0.commit.committed_per_cycle::overflows            0      0.00%    100.00% # Number of insts commited each cycle
system.cpu0.commit.committed_per_cycle::min_value            0                       # Number of insts commited each cycle
system.cpu0.commit.committed_per_cycle::max_value            8                       # Number of insts commited each cycle
system.cpu0.commit.committed_per_cycle::total      4599177                       # Number of insts commited each cycle
system.cpu0.commit.committedInsts             8258962                       # Number of instructions committed
system.cpu0.commit.committedOps               8266889                       # Number of ops (including micro ops) committed
system.cpu0.commit.swp_count                        0                       # Number of s/w prefetches committed
system.cpu0.commit.refs                       2198460                       # Number of memory references committed
system.cpu0.commit.loads                      2116745                       # Number of loads committed
system.cpu0.commit.membars                        113                       # Number of memory barriers committed
system.cpu0.commit.branches                    564614                       # Number of branches committed
system.cpu0.commit.fp_insts                        28                       # Number of committed floating point instructions.
system.cpu0.commit.int_insts                  7702786                       # Number of committed integer instructions.
system.cpu0.commit.function_calls                 294                       # Number of function calls committed.
system.cpu0.commit.op_class_0::No_OpClass            0      0.00%      0.00% # Class of committed instruction
system.cpu0.commit.op_class_0::IntAlu         4462766     53.98%     53.98% # Class of committed instruction
system.cpu0.commit.op_class_0::IntMult        1605660     19.42%     73.41% # Class of committed instruction
system.cpu0.commit.op_class_0::IntDiv               0      0.00%     73.41% # Class of committed instruction
system.cpu0.commit.op_class_0::FloatAdd             0      0.00%     73.41% # Class of committed instruction
system.cpu0.commit.op_class_0::FloatCmp             0      0.00%     73.41% # Class of committed instruction
system.cpu0.commit.op_class_0::FloatCvt             0      0.00%     73.41% # Class of committed instruction
system.cpu0.commit.op_class_0::FloatMult            0      0.00%     73.41% # Class of committed instruction
system.cpu0.commit.op_class_0::FloatDiv             0      0.00%     73.41% # Class of committed instruction
system.cpu0.commit.op_class_0::FloatSqrt            0      0.00%     73.41% # Class of committed instruction
system.cpu0.commit.op_class_0::SimdAdd              0      0.00%     73.41% # Class of committed instruction
system.cpu0.commit.op_class_0::SimdAddAcc            0      0.00%     73.41% # Class of committed instruction
system.cpu0.commit.op_class_0::SimdAlu              0      0.00%     73.41% # Class of committed instruction
system.cpu0.commit.op_class_0::SimdCmp              0      0.00%     73.41% # Class of committed instruction
system.cpu0.commit.op_class_0::SimdCvt              0      0.00%     73.41% # Class of committed instruction
system.cpu0.commit.op_class_0::SimdMisc             0      0.00%     73.41% # Class of committed instruction
system.cpu0.commit.op_class_0::SimdMult             0      0.00%     73.41% # Class of committed instruction
system.cpu0.commit.op_class_0::SimdMultAcc            0      0.00%     73.41% # Class of committed instruction
system.cpu0.commit.op_class_0::SimdShift            0      0.00%     73.41% # Class of committed instruction
system.cpu0.commit.op_class_0::SimdShiftAcc            0      0.00%     73.41% # Class of committed instruction
system.cpu0.commit.op_class_0::SimdSqrt             0      0.00%     73.41% # Class of committed instruction
system.cpu0.commit.op_class_0::SimdFloatAdd            0      0.00%     73.41% # Class of committed instruction
system.cpu0.commit.op_class_0::SimdFloatAlu            0      0.00%     73.41% # Class of committed instruction
system.cpu0.commit.op_class_0::SimdFloatCmp            0      0.00%     73.41% # Class of committed instruction
system.cpu0.commit.op_class_0::SimdFloatCvt            0      0.00%     73.41% # Class of committed instruction
system.cpu0.commit.op_class_0::SimdFloatDiv            0      0.00%     73.41% # Class of committed instruction
system.cpu0.commit.op_class_0::SimdFloatMisc            3      0.00%     73.41% # Class of committed instruction
system.cpu0.commit.op_class_0::SimdFloatMult            0      0.00%     73.41% # Class of committed instruction
system.cpu0.commit.op_class_0::SimdFloatMultAcc            0      0.00%     73.41% # Class of committed instruction
system.cpu0.commit.op_class_0::SimdFloatSqrt            0      0.00%     73.41% # Class of committed instruction
system.cpu0.commit.op_class_0::MemRead        2116745     25.61%     99.01% # Class of committed instruction
system.cpu0.commit.op_class_0::MemWrite         81715      0.99%    100.00% # Class of committed instruction
system.cpu0.commit.op_class_0::IprAccess            0      0.00%    100.00% # Class of committed instruction
system.cpu0.commit.op_class_0::InstPrefetch            0      0.00%    100.00% # Class of committed instruction
system.cpu0.commit.op_class_0::total          8266889                       # Class of committed instruction
system.cpu0.commit.bw_lim_events               359119                       # number cycles where commit BW limit reached
[...]
system.l2.demand_mshr_miss_latency::total    456534751                       # number of demand (read+write) MSHR miss cycles
system.l2.overall_mshr_miss_latency::cpu0.inst     33608750                       # number of overall MSHR miss cycles
system.l2.overall_mshr_miss_latency::cpu0.data    301253501                       # number of overall MSHR miss cycles
system.l2.overall_mshr_miss_latency::cpu1.inst      1076750                       # number of overall MSHR miss cycles
system.l2.overall_mshr_miss_latency::cpu1.data     39919500                       # number of overall MSHR miss cycles
system.l2.overall_mshr_miss_latency::cpu2.inst       410250                       # number of overall MSHR miss cycles
system.l2.overall_mshr_miss_latency::cpu2.data     39875000                       # number of overall MSHR miss cycles
system.l2.overall_mshr_miss_latency::cpu3.inst       323000                       # number of overall MSHR miss cycles
system.l2.overall_mshr_miss_latency::cpu3.data     40068000                       # number of overall MSHR miss cycles
system.l2.overall_mshr_miss_latency::total    456534751                       # number of overall MSHR miss cycles
system.l2.ReadReq_mshr_miss_rate::cpu0.inst     0.822785                       # mshr miss rate for ReadReq accesses
system.l2.ReadReq_mshr_miss_rate::cpu0.data     0.000741                       # mshr miss rate for ReadReq accesses
system.l2.ReadReq_mshr_miss_rate::cpu1.inst     0.260000                       # mshr miss rate for ReadReq accesses
system.l2.ReadReq_mshr_miss_rate::cpu1.data     0.000040                       # mshr miss rate for ReadReq accesses
system.l2.ReadReq_mshr_miss_rate::cpu2.inst     0.120000                       # mshr miss rate for ReadReq accesses
system.l2.ReadReq_mshr_miss_rate::cpu2.data     0.000023                       # mshr miss rate for ReadReq accesses
system.l2.ReadReq_mshr_miss_rate::cpu3.inst     0.092593                       # mshr miss rate for ReadReq accesses
system.l2.ReadReq_mshr_miss_rate::cpu3.data     0.000016                       # mshr miss rate for ReadReq accesses
system.l2.ReadReq_mshr_miss_rate::total      0.001182                       # mshr miss rate for ReadReq accesses
system.l2.UpgradeReq_mshr_miss_rate::cpu0.data     0.800000                       # mshr miss rate for UpgradeReq accesses
system.l2.UpgradeReq_mshr_miss_rate::total     0.800000                       # mshr miss rate for UpgradeReq accesses
system.l2.ReadExReq_mshr_miss_rate::cpu0.data     0.568334                       # mshr miss rate for ReadExReq accesses
system.l2.ReadExReq_mshr_miss_rate::cpu1.data     0.125915                       # mshr miss rate for ReadExReq accesses
system.l2.ReadExReq_mshr_miss_rate::cpu2.data     0.125884                       # mshr miss rate for ReadExReq accesses
system.l2.ReadExReq_mshr_miss_rate::cpu3.data     0.126128                       # mshr miss rate for ReadExReq accesses
system.l2.ReadExReq_mshr_miss_rate::total     0.304958                       # mshr miss rate for ReadExReq accesses
system.l2.demand_mshr_miss_rate::cpu0.inst     0.822785                       # mshr miss rate for demand accesses
system.l2.demand_mshr_miss_rate::cpu0.data     0.029284                       # mshr miss rate for demand accesses
system.l2.demand_mshr_miss_rate::cpu1.inst     0.260000                       # mshr miss rate for demand accesses
system.l2.demand_mshr_miss_rate::cpu1.data     0.003361                       # mshr miss rate for demand accesses
system.l2.demand_mshr_miss_rate::cpu2.inst     0.120000                       # mshr miss rate for demand accesses
system.l2.demand_mshr_miss_rate::cpu2.data     0.003881                       # mshr miss rate for demand accesses
system.l2.demand_mshr_miss_rate::cpu3.inst     0.092593                       # mshr miss rate for demand accesses
system.l2.demand_mshr_miss_rate::cpu3.data     0.003899                       # mshr miss rate for demand accesses
system.l2.demand_mshr_miss_rate::total       0.011831                       # mshr miss rate for demand accesses
system.l2.overall_mshr_miss_rate::cpu0.inst     0.822785                       # mshr miss rate for overall accesses
system.l2.overall_mshr_miss_rate::cpu0.data     0.029284                       # mshr miss rate for overall accesses
system.l2.overall_mshr_miss_rate::cpu1.inst     0.260000                       # mshr miss rate for overall accesses
system.l2.overall_mshr_miss_rate::cpu1.data     0.003361                       # mshr miss rate for overall accesses
system.l2.overall_mshr_miss_rate::cpu2.inst     0.120000                       # mshr miss rate for overall accesses
system.l2.overall_mshr_miss_rate::cpu2.data     0.003881                       # mshr miss rate for overall accesses
system.l2.overall_mshr_miss_rate::cpu3.inst     0.092593                       # mshr miss rate for overall accesses
system.l2.overall_mshr_miss_rate::cpu3.data     0.003899                       # mshr miss rate for overall accesses
system.l2.overall_mshr_miss_rate::total      0.011831                       # mshr miss rate for overall accesses
system.l2.ReadReq_avg_mshr_miss_latency::cpu0.inst 64632.211538                       # average ReadReq mshr miss latency
system.l2.ReadReq_avg_mshr_miss_latency::cpu0.data 67724.358974                       # average ReadReq mshr miss latency
system.l2.ReadReq_avg_mshr_miss_latency::cpu1.inst 82826.923077                       # average ReadReq mshr miss latency
system.l2.ReadReq_avg_mshr_miss_latency::cpu1.data 62208.333333                       # average ReadReq mshr miss latency
system.l2.ReadReq_avg_mshr_miss_latency::cpu2.inst        68375                       # average ReadReq mshr miss latency
system.l2.ReadReq_avg_mshr_miss_latency::cpu2.data 65916.666667                       # average ReadReq mshr miss latency
system.l2.ReadReq_avg_mshr_miss_latency::cpu3.inst        64600                       # average ReadReq mshr miss latency
system.l2.ReadReq_avg_mshr_miss_latency::cpu3.data        63625                       # average ReadReq mshr miss latency
system.l2.ReadReq_avg_mshr_miss_latency::total 65536.830357                       # average ReadReq mshr miss latency
system.l2.UpgradeReq_avg_mshr_miss_latency::cpu0.data        17876                       # average UpgradeReq mshr miss latency
system.l2.UpgradeReq_avg_mshr_miss_latency::total        17876                       # average UpgradeReq mshr miss latency
system.l2.ReadExReq_avg_mshr_miss_latency::cpu0.data 61766.635292                       # average ReadExReq mshr miss latency
system.l2.ReadExReq_avg_mshr_miss_latency::cpu1.data 76640.019380                       # average ReadExReq mshr miss latency
system.l2.ReadExReq_avg_mshr_miss_latency::cpu2.data 76893.895349                       # average ReadExReq mshr miss latency
system.l2.ReadExReq_avg_mshr_miss_latency::cpu3.data 77254.835590                       # average ReadExReq mshr miss latency
system.l2.ReadExReq_avg_mshr_miss_latency::total 65496.030645                       # average ReadExReq mshr miss latency
system.l2.demand_avg_mshr_miss_latency::cpu0.inst 64632.211538                       # average overall mshr miss latency
system.l2.demand_avg_mshr_miss_latency::cpu0.data 61909.885121                       # average overall mshr miss latency
system.l2.demand_avg_mshr_miss_latency::cpu1.inst 82826.923077                       # average overall mshr miss latency
system.l2.demand_avg_mshr_miss_latency::cpu1.data 76474.137931                       # average overall mshr miss latency
system.l2.demand_avg_mshr_miss_latency::cpu2.inst        68375                       # average overall mshr miss latency
system.l2.demand_avg_mshr_miss_latency::cpu2.data 76830.443160                       # average overall mshr miss latency
system.l2.demand_avg_mshr_miss_latency::cpu3.inst        64600                       # average overall mshr miss latency
system.l2.demand_avg_mshr_miss_latency::cpu3.data 77202.312139                       # average overall mshr miss latency
system.l2.demand_avg_mshr_miss_latency::total 65499.964275                       # average overall mshr miss latency
system.l2.overall_avg_mshr_miss_latency::cpu0.inst 64632.211538                       # average overall mshr miss latency
system.l2.overall_avg_mshr_miss_latency::cpu0.data 61909.885121                       # average overall mshr miss latency
system.l2.overall_avg_mshr_miss_latency::cpu1.inst 82826.923077                       # average overall mshr miss latency
system.l2.overall_avg_mshr_miss_latency::cpu1.data 76474.137931                       # average overall mshr miss latency
system.l2.overall_avg_mshr_miss_latency::cpu2.inst        68375                       # average overall mshr miss latency
system.l2.overall_avg_mshr_miss_latency::cpu2.data 76830.443160                       # average overall mshr miss latency
system.l2.overall_avg_mshr_miss_latency::cpu3.inst        64600                       # average overall mshr miss latency
system.l2.overall_avg_mshr_miss_latency::cpu3.data 77202.312139                       # average overall mshr miss latency
system.l2.overall_avg_mshr_miss_latency::total 65499.964275                       # average overall mshr miss latency
system.l2.no_allocate_misses                        0                       # Number of misses that were no-allocate
system.membus.trans_dist::ReadReq                 671                       # Transaction distribution
system.membus.trans_dist::ReadResp                670                       # Transaction distribution
system.membus.trans_dist::UpgradeReq                9                       # Transaction distribution
system.membus.trans_dist::SCUpgradeReq              7                       # Transaction distribution
system.membus.trans_dist::UpgradeResp               5                       # Transaction distribution
system.membus.trans_dist::ReadExReq              6297                       # Transaction distribution
system.membus.trans_dist::ReadExResp             6297                       # Transaction distribution
system.membus.pkt_count_system.l2.mem_side::system.mem_ctrls.port        13956                       # Packet count per connected master and slave (bytes)
system.membus.pkt_count::total                  13956                       # Packet count per connected master and slave (bytes)
system.membus.pkt_size_system.l2.mem_side::system.mem_ctrls.port       445888                       # Cumulative packet size per connected master and slave (bytes)
system.membus.pkt_size::total                  445888                       # Cumulative packet size per connected master and slave (bytes)
system.membus.snoops                               11                       # Total snoops (count)
system.membus.snoop_fanout::samples              6984                       # Request fanout histogram
system.membus.snoop_fanout::mean                    0                       # Request fanout histogram
system.membus.snoop_fanout::stdev                   0                       # Request fanout histogram
system.membus.snoop_fanout::underflows              0      0.00%      0.00% # Request fanout histogram
system.membus.snoop_fanout::0                    6984    100.00%    100.00% # Request fanout histogram
system.membus.snoop_fanout::1                       0      0.00%    100.00% # Request fanout histogram
system.membus.snoop_fanout::overflows               0      0.00%    100.00% # Request fanout histogram
system.membus.snoop_fanout::min_value               0                       # Request fanout histogram
system.membus.snoop_fanout::max_value               0                       # Request fanout histogram
system.membus.snoop_fanout::total                6984                       # Request fanout histogram
system.membus.reqLayer0.occupancy             7688500                       # Layer occupancy (ticks)
system.membus.reqLayer0.utilization               0.3                       # Layer utilization (%)
system.membus.respLayer1.occupancy           36840245                       # Layer occupancy (ticks)
system.membus.respLayer1.utilization              1.6                       # Layer utilization (%)
system.tol2bus.trans_dist::ReadReq            2126057                       # Transaction distribution
system.tol2bus.trans_dist::ReadResp           2126055                       # Transaction distribution
system.tol2bus.trans_dist::Writeback           560142                       # Transaction distribution
system.tol2bus.trans_dist::UpgradeReq               9                       # Transaction distribution
system.tol2bus.trans_dist::SCUpgradeReq             9                       # Transaction distribution
system.tol2bus.trans_dist::UpgradeResp             18                       # Transaction distribution
system.tol2bus.trans_dist::SCUpgradeFailReq            1                       # Transaction distribution
system.tol2bus.trans_dist::UpgradeFailResp            1                       # Transaction distribution
system.tol2bus.trans_dist::ReadExReq            20658                       # Transaction distribution
system.tol2bus.trans_dist::ReadExResp           20658                       # Transaction distribution
system.tol2bus.pkt_count_system.cpu0.icache.mem_side::system.l2.cpu_side         1262                       # Packet count per connected master and slave (bytes)
system.tol2bus.pkt_count_system.cpu0.dcache.mem_side::system.l2.cpu_side       865384                       # Packet count per connected master and slave (bytes)
system.tol2bus.pkt_count_system.cpu1.icache.mem_side::system.l2.cpu_side          100                       # Packet count per connected master and slave (bytes)
system.tol2bus.pkt_count_system.cpu1.dcache.mem_side::system.l2.cpu_side       839151                       # Packet count per connected master and slave (bytes)
system.tol2bus.pkt_count_system.cpu2.icache.mem_side::system.l2.cpu_side          100                       # Packet count per connected master and slave (bytes)
system.tol2bus.pkt_count_system.cpu2.dcache.mem_side::system.l2.cpu_side       795967                       # Packet count per connected master and slave (bytes)
system.tol2bus.pkt_count_system.cpu3.icache.mem_side::system.l2.cpu_side          108                       # Packet count per connected master and slave (bytes)
system.tol2bus.pkt_count_system.cpu3.dcache.mem_side::system.l2.cpu_side       793924                       # Packet count per connected master and slave (bytes)
system.tol2bus.pkt_count::total               3295996                       # Packet count per connected master and slave (bytes)
system.tol2bus.pkt_size_system.cpu0.icache.mem_side::system.l2.cpu_side        40320                       # Cumulative packet size per connected master and slave (bytes)
system.tol2bus.pkt_size_system.cpu0.dcache.mem_side::system.l2.cpu_side     20819520                       # Cumulative packet size per connected master and slave (bytes)
system.tol2bus.pkt_size_system.cpu1.icache.mem_side::system.l2.cpu_side         3200                       # Cumulative packet size per connected master and slave (bytes)
system.tol2bus.pkt_size_system.cpu1.dcache.mem_side::system.l2.cpu_side     19446400                       # Cumulative packet size per connected master and slave (bytes)
system.tol2bus.pkt_size_system.cpu2.icache.mem_side::system.l2.cpu_side         3200                       # Cumulative packet size per connected master and slave (bytes)
system.tol2bus.pkt_size_system.cpu2.dcache.mem_side::system.l2.cpu_side     16682112                       # Cumulative packet size per connected master and slave (bytes)
system.tol2bus.pkt_size_system.cpu3.icache.mem_side::system.l2.cpu_side         3456                       # Cumulative packet size per connected master and slave (bytes)
system.tol2bus.pkt_size_system.cpu3.dcache.mem_side::system.l2.cpu_side     16554112                       # Cumulative packet size per connected master and slave (bytes)
system.tol2bus.pkt_size::total               73552320                       # Cumulative packet size per connected master and slave (bytes)
system.tol2bus.snoops                         1557612                       # Total snoops (count)
system.tol2bus.snoop_fanout::samples          2706876                       # Request fanout histogram
system.tol2bus.snoop_fanout::mean                   7                       # Request fanout histogram
system.tol2bus.snoop_fanout::stdev                  0                       # Request fanout histogram
system.tol2bus.snoop_fanout::underflows             0      0.00%      0.00% # Request fanout histogram
system.tol2bus.snoop_fanout::0                      0      0.00%      0.00% # Request fanout histogram
system.tol2bus.snoop_fanout::1                      0      0.00%      0.00% # Request fanout histogram
system.tol2bus.snoop_fanout::2                      0      0.00%      0.00% # Request fanout histogram
system.tol2bus.snoop_fanout::3                      0      0.00%      0.00% # Request fanout histogram
system.tol2bus.snoop_fanout::4                      0      0.00%      0.00% # Request fanout histogram
system.tol2bus.snoop_fanout::5                      0      0.00%      0.00% # Request fanout histogram
system.tol2bus.snoop_fanout::6                      0      0.00%      0.00% # Request fanout histogram
system.tol2bus.snoop_fanout::7                2706876    100.00%    100.00% # Request fanout histogram
system.tol2bus.snoop_fanout::8                      0      0.00%    100.00% # Request fanout histogram
system.tol2bus.snoop_fanout::overflows              0      0.00%    100.00% # Request fanout histogram
system.tol2bus.snoop_fanout::min_value              7                       # Request fanout histogram
system.tol2bus.snoop_fanout::max_value              7                       # Request fanout histogram
system.tol2bus.snoop_fanout::total            2706876                       # Request fanout histogram
system.tol2bus.reqLayer0.occupancy         1913582495                       # Layer occupancy (ticks)
system.tol2bus.reqLayer0.utilization             82.1                       # Layer utilization (%)
system.tol2bus.respLayer0.occupancy           1046485                       # Layer occupancy (ticks)
system.tol2bus.respLayer0.utilization             0.0                       # Layer utilization (%)
system.tol2bus.respLayer1.occupancy         937581612                       # Layer occupancy (ticks)
system.tol2bus.respLayer1.utilization            40.2                       # Layer utilization (%)
system.tol2bus.respLayer4.occupancy             80976                       # Layer occupancy (ticks)
system.tol2bus.respLayer4.utilization             0.0                       # Layer utilization (%)
system.tol2bus.respLayer5.occupancy         929740534                       # Layer occupancy (ticks)
system.tol2bus.respLayer5.utilization            39.9                       # Layer utilization (%)
system.tol2bus.respLayer8.occupancy             81972                       # Layer occupancy (ticks)
system.tol2bus.respLayer8.utilization             0.0                       # Layer utilization (%)
system.tol2bus.respLayer9.occupancy         931138751                       # Layer occupancy (ticks)
system.tol2bus.respLayer9.utilization            39.9                       # Layer utilization (%)
system.tol2bus.respLayer12.occupancy            85226                       # Layer occupancy (ticks)
system.tol2bus.respLayer12.utilization            0.0                       # Layer utilization (%)
system.tol2bus.respLayer13.occupancy        931280674                       # Layer occupancy (ticks)
system.tol2bus.respLayer13.utilization           40.0                       # Layer utilization (%)

---------- End Simulation Statistics   ----------
