
---------- Begin Simulation Statistics ----------
sim_seconds                                  0.001662                       # Number of seconds simulated
sim_ticks                                  1662210500                       # Number of ticks simulated
final_tick                                 1662210500                       # Number of ticks from beginning of simulation (restored from checkpoints and never reset)
sim_freq                                 1000000000000                       # Frequency of simulated ticks
host_inst_rate                                 145692                       # Simulator instruction rate (inst/s)
host_op_rate                                   145800                       # Simulator op (including micro ops) rate (op/s)
host_tick_rate                                7547547                       # Simulator tick rate (ticks/s)
host_mem_usage                                 683812                       # Number of bytes of host memory used
host_seconds                                   220.23                       # Real time elapsed on the host
sim_insts                                    32085972                       # Number of instructions simulated
sim_ops                                      32109822                       # Number of ops (including micro ops) simulated
system.voltage_domain.voltage                       1                       # Voltage in Volts
system.clk_domain.clock                          1000                       # Clock period in ticks
system.mem_ctrls.bytes_read::cpu0.inst          33984                       # Number of bytes read from this memory
system.mem_ctrls.bytes_read::cpu0.data          32256                       # Number of bytes read from this memory
system.mem_ctrls.bytes_read::cpu1.inst           1024                       # Number of bytes read from this memory
system.mem_ctrls.bytes_read::cpu1.data          16704                       # Number of bytes read from this memory
system.mem_ctrls.bytes_read::cpu2.inst            128                       # Number of bytes read from this memory
system.mem_ctrls.bytes_read::cpu2.data          16704                       # Number of bytes read from this memory
system.mem_ctrls.bytes_read::cpu3.inst            640                       # Number of bytes read from this memory
system.mem_ctrls.bytes_read::cpu3.data          16832                       # Number of bytes read from this memory
system.mem_ctrls.bytes_read::cpu4.inst            192                       # Number of bytes read from this memory
system.mem_ctrls.bytes_read::cpu4.data          16704                       # Number of bytes read from this memory
system.mem_ctrls.bytes_read::cpu5.data          16704                       # Number of bytes read from this memory
system.mem_ctrls.bytes_read::cpu6.inst             64                       # Number of bytes read from this memory
system.mem_ctrls.bytes_read::cpu6.data          16640                       # Number of bytes read from this memory
system.mem_ctrls.bytes_read::cpu7.inst            320                       # Number of bytes read from this memory
system.mem_ctrls.bytes_read::cpu7.data          16704                       # Number of bytes read from this memory
system.mem_ctrls.bytes_read::l2.prefetcher       266496                       # Number of bytes read from this memory
system.mem_ctrls.bytes_read::total             452096                       # Number of bytes read from this memory
system.mem_ctrls.bytes_inst_read::cpu0.inst        33984                       # Number of instructions bytes read from this memory
system.mem_ctrls.bytes_inst_read::cpu1.inst         1024                       # Number of instructions bytes read from this memory
system.mem_ctrls.bytes_inst_read::cpu2.inst          128                       # Number of instructions bytes read from this memory
system.mem_ctrls.bytes_inst_read::cpu3.inst          640                       # Number of instructions bytes read from this memory
system.mem_ctrls.bytes_inst_read::cpu4.inst          192                       # Number of instructions bytes read from this memory
system.mem_ctrls.bytes_inst_read::cpu6.inst           64                       # Number of instructions bytes read from this memory
system.mem_ctrls.bytes_inst_read::cpu7.inst          320                       # Number of instructions bytes read from this memory
system.mem_ctrls.bytes_inst_read::total         36352                       # Number of instructions bytes read from this memory
system.mem_ctrls.num_reads::cpu0.inst             531                       # Number of read requests responded to by this memory
system.mem_ctrls.num_reads::cpu0.data             504                       # Number of read requests responded to by this memory
system.mem_ctrls.num_reads::cpu1.inst              16                       # Number of read requests responded to by this memory
system.mem_ctrls.num_reads::cpu1.data             261                       # Number of read requests responded to by this memory
system.mem_ctrls.num_reads::cpu2.inst               2                       # Number of read requests responded to by this memory
system.mem_ctrls.num_reads::cpu2.data             261                       # Number of read requests responded to by this memory
system.mem_ctrls.num_reads::cpu3.inst              10                       # Number of read requests responded to by this memory
system.mem_ctrls.num_reads::cpu3.data             263                       # Number of read requests responded to by this memory
system.mem_ctrls.num_reads::cpu4.inst               3                       # Number of read requests responded to by this memory
system.mem_ctrls.num_reads::cpu4.data             261                       # Number of read requests responded to by this memory
system.mem_ctrls.num_reads::cpu5.data             261                       # Number of read requests responded to by this memory
system.mem_ctrls.num_reads::cpu6.inst               1                       # Number of read requests responded to by this memory
system.mem_ctrls.num_reads::cpu6.data             260                       # Number of read requests responded to by this memory
system.mem_ctrls.num_reads::cpu7.inst               5                       # Number of read requests responded to by this memory
system.mem_ctrls.num_reads::cpu7.data             261                       # Number of read requests responded to by this memory
system.mem_ctrls.num_reads::l2.prefetcher         4164                       # Number of read requests responded to by this memory
system.mem_ctrls.num_reads::total                7064                       # Number of read requests responded to by this memory
system.mem_ctrls.bw_read::cpu0.inst          20445064                       # Total read bandwidth from this memory (bytes/s)
system.mem_ctrls.bw_read::cpu0.data          19405484                       # Total read bandwidth from this memory (bytes/s)
system.mem_ctrls.bw_read::cpu1.inst            616047                       # Total read bandwidth from this memory (bytes/s)
system.mem_ctrls.bw_read::cpu1.data          10049269                       # Total read bandwidth from this memory (bytes/s)
system.mem_ctrls.bw_read::cpu2.inst             77006                       # Total read bandwidth from this memory (bytes/s)
system.mem_ctrls.bw_read::cpu2.data          10049269                       # Total read bandwidth from this memory (bytes/s)
system.mem_ctrls.bw_read::cpu3.inst            385029                       # Total read bandwidth from this memory (bytes/s)
system.mem_ctrls.bw_read::cpu3.data          10126275                       # Total read bandwidth from this memory (bytes/s)
system.mem_ctrls.bw_read::cpu4.inst            115509                       # Total read bandwidth from this memory (bytes/s)
system.mem_ctrls.bw_read::cpu4.data          10049269                       # Total read bandwidth from this memory (bytes/s)
system.mem_ctrls.bw_read::cpu5.data          10049269                       # Total read bandwidth from this memory (bytes/s)
system.mem_ctrls.bw_read::cpu6.inst             38503                       # Total read bandwidth from this memory (bytes/s)
system.mem_ctrls.bw_read::cpu6.data          10010766                       # Total read bandwidth from this memory (bytes/s)
system.mem_ctrls.bw_read::cpu7.inst            192515                       # Total read bandwidth from this memory (bytes/s)
system.mem_ctrls.bw_read::cpu7.data          10049269                       # Total read bandwidth from this memory (bytes/s)
system.mem_ctrls.bw_read::l2.prefetcher     160326264                       # Total read bandwidth from this memory (bytes/s)
system.mem_ctrls.bw_read::total             271984806                       # Total read bandwidth from this memory (bytes/s)
system.mem_ctrls.bw_inst_read::cpu0.inst     20445064                       # Instruction read bandwidth from this memory (bytes/s)
system.mem_ctrls.bw_inst_read::cpu1.inst       616047                       # Instruction read bandwidth from this memory (bytes/s)
system.mem_ctrls.bw_inst_read::cpu2.inst        77006                       # Instruction read bandwidth from this memory (bytes/s)
system.mem_ctrls.bw_inst_read::cpu3.inst       385029                       # Instruction read bandwidth from this memory (bytes/s)
system.mem_ctrls.bw_inst_read::cpu4.inst       115509                       # Instruction read bandwidth from this memory (bytes/s)
system.mem_ctrls.bw_inst_read::cpu6.inst        38503                       # Instruction read bandwidth from this memory (bytes/s)
system.mem_ctrls.bw_inst_read::cpu7.inst       192515                       # Instruction read bandwidth from this memory (bytes/s)
system.mem_ctrls.bw_inst_read::total         21869673                       # Instruction read bandwidth from this memory (bytes/s)
system.mem_ctrls.bw_total::cpu0.inst         20445064                       # Total bandwidth to/from this memory (bytes/s)
system.mem_ctrls.bw_total::cpu0.data         19405484                       # Total bandwidth to/from this memory (bytes/s)
system.mem_ctrls.bw_total::cpu1.inst           616047                       # Total bandwidth to/from this memory (bytes/s)
system.mem_ctrls.bw_total::cpu1.data         10049269                       # Total bandwidth to/from this memory (bytes/s)
system.mem_ctrls.bw_total::cpu2.inst            77006                       # Total bandwidth to/from this memory (bytes/s)
system.mem_ctrls.bw_total::cpu2.data         10049269                       # Total bandwidth to/from this memory (bytes/s)
system.mem_ctrls.bw_total::cpu3.inst           385029                       # Total bandwidth to/from this memory (bytes/s)
system.mem_ctrls.bw_total::cpu3.data         10126275                       # Total bandwidth to/from this memory (bytes/s)
system.mem_ctrls.bw_total::cpu4.inst           115509                       # Total bandwidth to/from this memory (bytes/s)
system.mem_ctrls.bw_total::cpu4.data         10049269                       # Total bandwidth to/from this memory (bytes/s)
system.mem_ctrls.bw_total::cpu5.data         10049269                       # Total bandwidth to/from this memory (bytes/s)
system.mem_ctrls.bw_total::cpu6.inst            38503                       # Total bandwidth to/from this memory (bytes/s)
system.mem_ctrls.bw_total::cpu6.data         10010766                       # Total bandwidth to/from this memory (bytes/s)
system.mem_ctrls.bw_total::cpu7.inst           192515                       # Total bandwidth to/from this memory (bytes/s)
system.mem_ctrls.bw_total::cpu7.data         10049269                       # Total bandwidth to/from this memory (bytes/s)
system.mem_ctrls.bw_total::l2.prefetcher    160326264                       # Total bandwidth to/from this memory (bytes/s)
system.mem_ctrls.bw_total::total            271984806                       # Total bandwidth to/from this memory (bytes/s)
system.mem_ctrls.readReqs                        7064                       # Number of read requests accepted
system.mem_ctrls.writeReqs                          0                       # Number of write requests accepted
system.mem_ctrls.readBursts                      7064                       # Number of DRAM read bursts, including those serviced by the write queue
system.mem_ctrls.writeBursts                        0                       # Number of DRAM write bursts, including those merged in the write queue
system.mem_ctrls.bytesReadDRAM                 452096                       # Total number of bytes read from DRAM
system.mem_ctrls.bytesReadWrQ                       0                       # Total number of bytes read from write queue
system.mem_ctrls.bytesWritten                       0                       # Total number of bytes written to DRAM
system.mem_ctrls.bytesReadSys                  452096                       # Total read bytes from the system interface side
system.mem_ctrls.bytesWrittenSys                    0                       # Total written bytes from the system interface side
system.mem_ctrls.servicedByWrQ                      0                       # Number of DRAM read bursts serviced by the write queue
system.mem_ctrls.mergedWrBursts                     0                       # Number of DRAM write bursts merged with an existing one
system.mem_ctrls.neitherReadNorWriteReqs            7                       # Number of requests that are neither read nor write
system.mem_ctrls.perBankRdBursts::0               516                       # Per bank write bursts
system.mem_ctrls.perBankRdBursts::1               511                       # Per bank write bursts
system.mem_ctrls.perBankRdBursts::2               522                       # Per bank write bursts
system.mem_ctrls.perBankRdBursts::3               485                       # Per bank write bursts
system.mem_ctrls.perBankRdBursts::4               443                       # Per bank write bursts
system.mem_ctrls.perBankRdBursts::5               447                       # Per bank write bursts
system.mem_ctrls.perBankRdBursts::6               483                       # Per bank write bursts
system.mem_ctrls.perBankRdBursts::7               413                       # Per bank write bursts
system.mem_ctrls.perBankRdBursts::8               400                       # Per bank write bursts
system.mem_ctrls.perBankRdBursts::9               392                       # Per bank write bursts
system.mem_ctrls.perBankRdBursts::10              384                       # Per bank write bursts
system.mem_ctrls.perBankRdBursts::11              397                       # Per bank write bursts
system.mem_ctrls.perBankRdBursts::12              389                       # Per bank write bursts
system.mem_ctrls.perBankRdBursts::13              418                       # Per bank write bursts
system.mem_ctrls.perBankRdBursts::14              422                       # Per bank write bursts
system.mem_ctrls.perBankRdBursts::15              442                       # Per bank write bursts
system.mem_ctrls.perBankWrBursts::0                 0                       # Per bank write bursts
system.mem_ctrls.perBankWrBursts::1                 0                       # Per bank write bursts
system.mem_ctrls.perBankWrBursts::2                 0                       # Per bank write bursts
system.mem_ctrls.perBankWrBursts::3                 0                       # Per bank write bursts
system.mem_ctrls.perBankWrBursts::4                 0                       # Per bank write bursts
system.mem_ctrls.perBankWrBursts::5                 0                       # Per bank write bursts
system.mem_ctrls.perBankWrBursts::6                 0                       # Per bank write bursts
system.mem_ctrls.perBankWrBursts::7                 0                       # Per bank write bursts
system.mem_ctrls.perBankWrBursts::8                 0                       # Per bank write bursts
system.mem_ctrls.perBankWrBursts::9                 0                       # Per bank write bursts
system.mem_ctrls.perBankWrBursts::10                0                       # Per bank write bursts
system.mem_ctrls.perBankWrBursts::11                0                       # Per bank write bursts
system.mem_ctrls.perBankWrBursts::12                0                       # Per bank write bursts
system.mem_ctrls.perBankWrBursts::13                0                       # Per bank write bursts
system.mem_ctrls.perBankWrBursts::14                0                       # Per bank write bursts
system.mem_ctrls.perBankWrBursts::15                0                       # Per bank write bursts
system.mem_ctrls.numRdRetry                         0                       # Number of times read queue was full causing retry
system.mem_ctrls.numWrRetry                         0                       # Number of times write queue was full causing retry
system.mem_ctrls.totGap                    1662171500                       # Total gap between requests
system.mem_ctrls.readPktSize::0                     0                       # Read request sizes (log2)
system.mem_ctrls.readPktSize::1                     0                       # Read request sizes (log2)
system.mem_ctrls.readPktSize::2                     0                       # Read request sizes (log2)
system.mem_ctrls.readPktSize::3                     0                       # Read request sizes (log2)
system.mem_ctrls.readPktSize::4                     0                       # Read request sizes (log2)
system.mem_ctrls.readPktSize::5                     0                       # Read request sizes (log2)
system.mem_ctrls.readPktSize::6                  7064                       # Read request sizes (log2)
system.mem_ctrls.writePktSize::0                    0                       # Write request sizes (log2)
system.mem_ctrls.writePktSize::1                    0                       # Write request sizes (log2)
system.mem_ctrls.writePktSize::2                    0                       # Write request sizes (log2)
system.mem_ctrls.writePktSize::3                    0                       # Write request sizes (log2)
system.mem_ctrls.writePktSize::4                    0                       # Write request sizes (log2)
system.mem_ctrls.writePktSize::5                    0                       # Write request sizes (log2)
system.mem_ctrls.writePktSize::6                    0                       # Write request sizes (log2)
system.mem_ctrls.rdQLenPdf::0                    2668                       # What read queue length does an incoming req see
system.mem_ctrls.rdQLenPdf::1                    2092                       # What read queue length does an incoming req see
system.mem_ctrls.rdQLenPdf::2                     492                       # What read queue length does an incoming req see
system.mem_ctrls.rdQLenPdf::3                     359                       # What read queue length does an incoming req see
system.mem_ctrls.rdQLenPdf::4                     344                       # What read queue length does an incoming req see
system.mem_ctrls.rdQLenPdf::5                     342                       # What read queue length does an incoming req see
system.mem_ctrls.rdQLenPdf::6                     339                       # What read queue length does an incoming req see
system.mem_ctrls.rdQLenPdf::7                     337                       # What read queue length does an incoming req see
system.mem_ctrls.rdQLenPdf::8                      82                       # What read queue length does an incoming req see
system.mem_ctrls.rdQLenPdf::9                       7                       # What read queue length does an incoming req see
system.mem_ctrls.rdQLenPdf::10                      2                       # What read queue length does an incoming req see
system.mem_ctrls.rdQLenPdf::11                      0                       # What read queue length does an incoming req see
system.mem_ctrls.rdQLenPdf::12                      0                       # What read queue length does an incoming req see
system.mem_ctrls.rdQLenPdf::13                      0                       # What read queue length does an incoming req see
system.mem_ctrls.rdQLenPdf::14                      0                       # What read queue length does an incoming req see
system.mem_ctrls.rdQLenPdf::15                      0                       # What read queue length does an incoming req see
system.mem_ctrls.rdQLenPdf::16                      0                       # What read queue length does an incoming req see
system.mem_ctrls.rdQLenPdf::17                      0                       # What read queue length does an incoming req see
system.mem_ctrls.rdQLenPdf::18                      0                       # What read queue length does an incoming req see
system.mem_ctrls.rdQLenPdf::19                      0                       # What read queue length does an incoming req see
system.mem_ctrls.rdQLenPdf::20                      0                       # What read queue length does an incoming req see
system.mem_ctrls.rdQLenPdf::21                      0                       # What read queue length does an incoming req see
system.mem_ctrls.rdQLenPdf::22                      0                       # What read queue length does an incoming req see
system.mem_ctrls.rdQLenPdf::23                      0                       # What read queue length does an incoming req see
system.mem_ctrls.rdQLenPdf::24                      0                       # What read queue length does an incoming req see
system.mem_ctrls.rdQLenPdf::25                      0                       # What read queue length does an incoming req see
system.mem_ctrls.rdQLenPdf::26                      0                       # What read queue length does an incoming req see
system.mem_ctrls.rdQLenPdf::27                      0                       # What read queue length does an incoming req see
system.mem_ctrls.rdQLenPdf::28                      0                       # What read queue length does an incoming req see
system.mem_ctrls.rdQLenPdf::29                      0                       # What read queue length does an incoming req see
system.mem_ctrls.rdQLenPdf::30                      0                       # What read queue length does an incoming req see
system.mem_ctrls.rdQLenPdf::31                      0                       # What read queue length does an incoming req see
system.mem_ctrls.wrQLenPdf::0                       0                       # What write queue length does an incoming req see
system.mem_ctrls.wrQLenPdf::1                       0                       # What write queue length does an incoming req see
system.mem_ctrls.wrQLenPdf::2                       0                       # What write queue length does an incoming req see
system.mem_ctrls.wrQLenPdf::3                       0                       # What write queue length does an incoming req see
system.mem_ctrls.wrQLenPdf::4                       0                       # What write queue length does an incoming req see
system.mem_ctrls.wrQLenPdf::5                       0                       # What write queue length does an incoming req see
system.mem_ctrls.wrQLenPdf::6                       0                       # What write queue length does an incoming req see
system.mem_ctrls.wrQLenPdf::7                       0                       # What write queue length does an incoming req see
system.mem_ctrls.wrQLenPdf::8                       0                       # What write queue length does an incoming req see
system.mem_ctrls.wrQLenPdf::9                       0                       # What write queue length does an incoming req see
system.mem_ctrls.wrQLenPdf::10                      0                       # What write queue length does an incoming req see
system.mem_ctrls.wrQLenPdf::11                      0                       # What write queue length does an incoming req see
system.mem_ctrls.wrQLenPdf::12                      0                       # What write queue length does an incoming req see
system.mem_ctrls.wrQLenPdf::13                      0                       # What write queue length does an incoming req see
system.mem_ctrls.wrQLenPdf::14                      0                       # What write queue length does an incoming req see
system.mem_ctrls.wrQLenPdf::15                      0                       # What write queue length does an incoming req see
system.mem_ctrls.wrQLenPdf::16                      0                       # What write queue length does an incoming req see
system.mem_ctrls.wrQLenPdf::17                      0                       # What write queue length does an incoming req see
system.mem_ctrls.wrQLenPdf::18                      0                       # What write queue length does an incoming req see
system.mem_ctrls.wrQLenPdf::19                      0                       # What write queue length does an incoming req see
system.mem_ctrls.wrQLenPdf::20                      0                       # What write queue length does an incoming req see
system.mem_ctrls.wrQLenPdf::21                      0                       # What write queue length does an incoming req see
system.mem_ctrls.wrQLenPdf::22                      0                       # What write queue length does an incoming req see
system.mem_ctrls.wrQLenPdf::23                      0                       # What write queue length does an incoming req see
system.mem_ctrls.wrQLenPdf::24                      0                       # What write queue length does an incoming req see
system.mem_ctrls.wrQLenPdf::25                      0                       # What write queue length does an incoming req see
system.mem_ctrls.wrQLenPdf::26                      0                       # What write queue length does an incoming req see
system.mem_ctrls.wrQLenPdf::27                      0                       # What write queue length does an incoming req see
system.mem_ctrls.wrQLenPdf::28                      0                       # What write queue length does an incoming req see
system.mem_ctrls.wrQLenPdf::29                      0                       # What write queue length does an incoming req see
system.mem_ctrls.wrQLenPdf::30                      0                       # What write queue length does an incoming req see
system.mem_ctrls.wrQLenPdf::31                      0                       # What write queue length does an incoming req see
system.mem_ctrls.wrQLenPdf::32                      0                       # What write queue length does an incoming req see
system.mem_ctrls.wrQLenPdf::33                      0                       # What write queue length does an incoming req see
system.mem_ctrls.wrQLenPdf::34                      0                       # What write queue length does an incoming req see
system.mem_ctrls.wrQLenPdf::35                      0                       # What write queue length does an incoming req see
system.mem_ctrls.wrQLenPdf::36                      0                       # What write queue length does an incoming req see
system.mem_ctrls.wrQLenPdf::37                      0                       # What write queue length does an incoming req see
system.mem_ctrls.wrQLenPdf::38                      0                       # What write queue length does an incoming req see
system.mem_ctrls.wrQLenPdf::39                      0                       # What write queue length does an incoming req see
system.mem_ctrls.wrQLenPdf::40                      0                       # What write queue length does an incoming req see
system.mem_ctrls.wrQLenPdf::41                      0                       # What write queue length does an incoming req see
system.mem_ctrls.wrQLenPdf::42                      0                       # What write queue length does an incoming req see
system.mem_ctrls.wrQLenPdf::43                      0                       # What write queue length does an incoming req see
system.mem_ctrls.wrQLenPdf::44                      0                       # What write queue length does an incoming req see
system.mem_ctrls.wrQLenPdf::45                      0                       # What write queue length does an incoming req see
system.mem_ctrls.wrQLenPdf::46                      0                       # What write queue length does an incoming req see
system.mem_ctrls.wrQLenPdf::47                      0                       # What write queue length does an incoming req see
system.mem_ctrls.wrQLenPdf::48                      0                       # What write queue length does an incoming req see
system.mem_ctrls.wrQLenPdf::49                      0                       # What write queue length does an incoming req see
system.mem_ctrls.wrQLenPdf::50                      0                       # What write queue length does an incoming req see
system.mem_ctrls.wrQLenPdf::51                      0                       # What write queue length does an incoming req see
system.mem_ctrls.wrQLenPdf::52                      0                       # What write queue length does an incoming req see
system.mem_ctrls.wrQLenPdf::53                      0                       # What write queue length does an incoming req see
system.mem_ctrls.wrQLenPdf::54                      0                       # What write queue length does an incoming req see
system.mem_ctrls.wrQLenPdf::55                      0                       # What write queue length does an incoming req see
system.mem_ctrls.wrQLenPdf::56                      0                       # What write queue length does an incoming req see
system.mem_ctrls.wrQLenPdf::57                      0                       # What write queue length does an incoming req see
system.mem_ctrls.wrQLenPdf::58                      0                       # What write queue length does an incoming req see
system.mem_ctrls.wrQLenPdf::59                      0                       # What write queue length does an incoming req see
system.mem_ctrls.wrQLenPdf::60                      0                       # What write queue length does an incoming req see
system.mem_ctrls.wrQLenPdf::61                      0                       # What write queue length does an incoming req see
system.mem_ctrls.wrQLenPdf::62                      0                       # What write queue length does an incoming req see
system.mem_ctrls.wrQLenPdf::63                      0                       # What write queue length does an incoming req see
system.mem_ctrls.bytesPerActivate::samples         2093                       # Bytes accessed per row activation
system.mem_ctrls.bytesPerActivate::mean    215.147635                       # Bytes accessed per row activation
system.mem_ctrls.bytesPerActivate::gmean   115.474171                       # Bytes accessed per row activation
system.mem_ctrls.bytesPerActivate::stdev   318.384317                       # Bytes accessed per row activation
system.mem_ctrls.bytesPerActivate::0-127         1235     59.01%     59.01% # Bytes accessed per row activation
system.mem_ctrls.bytesPerActivate::128-255          525     25.08%     84.09% # Bytes accessed per row activation
system.mem_ctrls.bytesPerActivate::256-383           27      1.29%     85.38% # Bytes accessed per row activation
system.mem_ctrls.bytesPerActivate::384-511           13      0.62%     86.00% # Bytes accessed per row activation
system.mem_ctrls.bytesPerActivate::512-639           12      0.57%     86.57% # Bytes accessed per row activation
system.mem_ctrls.bytesPerActivate::640-767            7      0.33%     86.91% # Bytes accessed per row activation
system.mem_ctrls.bytesPerActivate::768-895            7      0.33%     87.24% # Bytes accessed per row activation
system.mem_ctrls.bytesPerActivate::896-1023            4      0.19%     87.43% # Bytes accessed per row activation
system.mem_ctrls.bytesPerActivate::1024-1151          263     12.57%    100.00% # Bytes accessed per row activation
system.mem_ctrls.bytesPerActivate::total         2093                       # Bytes accessed per row activation
system.mem_ctrls.totQLat                    120135696                       # Total ticks spent queuing
system.mem_ctrls.totMemAccLat               252585696                       # Total ticks spent from burst creation until serviced by the DRAM
system.mem_ctrls.totBusLat                   35320000                       # Total ticks spent in databus transfers
system.mem_ctrls.avgQLat                     17006.75                       # Average queueing delay per DRAM burst
system.mem_ctrls.avgBusLat                    5000.00                       # Average bus latency per DRAM burst
system.mem_ctrls.avgMemAccLat                35756.75                       # Average memory access latency per DRAM burst
system.mem_ctrls.avgRdBW                       271.98                       # Average DRAM read bandwidth in MiByte/s
system.mem_ctrls.avgWrBW                         0.00                       # Average achieved write bandwidth in MiByte/s
system.mem_ctrls.avgRdBWSys                    271.98                       # Average system read bandwidth in MiByte/s
system.mem_ctrls.avgWrBWSys                      0.00                       # Average system write bandwidth in MiByte/s
system.mem_ctrls.peakBW                      12800.00                       # Theoretical peak bandwidth in MiByte/s
system.mem_ctrls.busUtil                         2.12                       # Data bus utilization in percentage
system.mem_ctrls.busUtilRead                     2.12                       # Data bus utilization in percentage for reads
system.mem_ctrls.busUtilWrite                    0.00                       # Data bus utilization in percentage for writes
system.mem_ctrls.avgRdQLen                       7.44                       # Average read queue length when enqueuing
system.mem_ctrls.avgWrQLen                       0.00                       # Average write queue length when enqueuing
system.mem_ctrls.readRowHits                     4961                       # Number of row buffer hits during reads
system.mem_ctrls.writeRowHits                       0                       # Number of row buffer hits during writes
system.mem_ctrls.readRowHitRate                 70.23                       # Row buffer hit rate for reads
system.mem_ctrls.writeRowHitRate                  nan                       # Row buffer hit rate for writes
system.mem_ctrls.avgGap                     235301.74                       # Average gap between requests
system.mem_ctrls.pageHitRate                    70.23                       # Row buffer hit rate, read and write combined
system.mem_ctrls_0.actEnergy                  8520120                       # Energy for activate commands per rank (pJ)
system.mem_ctrls_0.preEnergy                  4648875                       # Energy for precharge commands per rank (pJ)
system.mem_ctrls_0.readEnergy                29624400                       # Energy for read commands per rank (pJ)
system.mem_ctrls_0.writeEnergy                      0                       # Energy for write commands per rank (pJ)
system.mem_ctrls_0.refreshEnergy            108323280                       # Energy for refresh commands per rank (pJ)
system.mem_ctrls_0.actBackEnergy            737422110                       # Energy for active background per rank (pJ)
system.mem_ctrls_0.preBackEnergy            348377250                       # Energy for precharge background per rank (pJ)
system.mem_ctrls_0.totalEnergy             1236916035                       # Total energy per rank (pJ)
system.mem_ctrls_0.averagePower            745.700086                       # Core power per rank (mW)
system.mem_ctrls_0.memoryStateTime::IDLE    574025677                       # Time in different power states
system.mem_ctrls_0.memoryStateTime::REF      55380000                       # Time in different power states
system.mem_ctrls_0.memoryStateTime::PRE_PDN            0                       # Time in different power states
system.mem_ctrls_0.memoryStateTime::ACT    1029339323                       # Time in different power states
system.mem_ctrls_0.memoryStateTime::ACT_PDN            0                       # Time in different power states
system.mem_ctrls_1.actEnergy                  7242480                       # Energy for activate commands per rank (pJ)
system.mem_ctrls_1.preEnergy                  3951750                       # Energy for precharge commands per rank (pJ)
system.mem_ctrls_1.readEnergy                25006800                       # Energy for read commands per rank (pJ)
system.mem_ctrls_1.writeEnergy                      0                       # Energy for write commands per rank (pJ)
system.mem_ctrls_1.refreshEnergy            108323280                       # Energy for refresh commands per rank (pJ)
system.mem_ctrls_1.actBackEnergy            740931885                       # Energy for active background per rank (pJ)
system.mem_ctrls_1.preBackEnergy            345298500                       # Energy for precharge background per rank (pJ)
system.mem_ctrls_1.totalEnergy             1230754695                       # Total energy per rank (pJ)
system.mem_ctrls_1.averagePower            741.985596                       # Core power per rank (mW)
system.mem_ctrls_1.memoryStateTime::IDLE    569380742                       # Time in different power states
system.mem_ctrls_1.memoryStateTime::REF      55380000                       # Time in different power states
system.mem_ctrls_1.memoryStateTime::PRE_PDN            0                       # Time in different power states
system.mem_ctrls_1.memoryStateTime::ACT    1034280258                       # Time in different power states
system.mem_ctrls_1.memoryStateTime::ACT_PDN            0                       # Time in different power states
system.cpu0.branchPred.lookups                 310679                       # Number of BP lookups
system.cpu0.branchPred.condPredicted           308211                       # Number of conditional branches predicted
system.cpu0.branchPred.condIncorrect             3653                       # Number of conditional branches incorrect
system.cpu0.branchPred.BTBLookups              305017                       # Number of BTB lookups
system.cpu0.branchPred.BTBHits                 304216                       # Number of BTB hits
system.cpu0.branchPred.BTBCorrect                   0                       # Number of correct BTB predictions (this stat may not work properly.
system.cpu0.branchPred.BTBHitPct            99.737392                       # BTB Hit Percentage
system.cpu0.branchPred.usedRAS                    828                       # Number of times the RAS was used to get a target.
system.cpu0.branchPred.RASInCorrect                 7                       # Number of incorrect RAS predictions.
system.cpu_voltage_domain.voltage                   1                       # Voltage in Volts
system.cpu_clk_domain.clock                       500                       # Clock period in ticks
system.cpu0.dstage2_mmu.stage2_tlb.walker.walks            0                       # Table walker walks requested
system.cpu0.dstage2_mmu.stage2_tlb.walker.walkRequestOrigin_Requested::Data            0                       # Table walker requests started/completed, data/inst
system.cpu0.dstage2_mmu.stage2_tlb.walker.walkRequestOrigin_Requested::Inst            0                       # Table walker requests started/completed, data/inst
system.cpu0.dstage2_mmu.stage2_tlb.walker.walkRequestOrigin_Requested::total            0                       # Table walker requests started/completed, data/inst
system.cpu0.dstage2_mmu.stage2_tlb.walker.walkRequestOrigin_Completed::Data            0                       # Table walker requests started/completed, data/inst
system.cpu0.dstage2_mmu.stage2_tlb.walker.walkRequestOrigin_Completed::Inst            0                       # Table walker requests started/completed, data/inst
system.cpu0.dstage2_mmu.stage2_tlb.walker.walkRequestOrigin_Completed::total            0                       # Table walker requests started/completed, data/inst
system.cpu0.dstage2_mmu.stage2_tlb.walker.walkRequestOrigin::total            0                       # Table walker requests started/completed, data/inst
system.cpu0.dstage2_mmu.stage2_tlb.inst_hits            0                       # ITB inst hits
system.cpu0.dstage2_mmu.stage2_tlb.inst_misses            0                       # ITB inst misses
system.cpu0.dstage2_mmu.stage2_tlb.read_hits            0                       # DTB read hits
system.cpu0.dstage2_mmu.stage2_tlb.read_misses            0                       # DTB read misses
system.cpu0.dstage2_mmu.stage2_tlb.write_hits            0                       # DTB write hits
system.cpu0.dstage2_mmu.stage2_tlb.write_misses            0                       # DTB write misses
system.cpu0.dstage2_mmu.stage2_tlb.flush_tlb            0                       # Number of times complete TLB was flushed
system.cpu0.dstage2_mmu.stage2_tlb.flush_tlb_mva            0                       # Number of times TLB was flushed by MVA
system.cpu0.dstage2_mmu.stage2_tlb.flush_tlb_mva_asid            0                       # Number of times TLB was flushed by MVA & ASID
system.cpu0.dstage2_mmu.stage2_tlb.flush_tlb_asid            0                       # Number of times TLB was flushed by ASID
system.cpu0.dstage2_mmu.stage2_tlb.flush_entries            0                       # Number of entries that have been flushed from TLB
system.cpu0.dstage2_mmu.stage2_tlb.align_faults            0                       # Number of TLB faults due to alignment restrictions
system.cpu0.dstage2_mmu.stage2_tlb.prefetch_faults            0                       # Number of TLB faults due to prefetch
system.cpu0.dstage2_mmu.stage2_tlb.domain_faults            0                       # Number of TLB faults due to domain restrictions
system.cpu0.dstage2_mmu.stage2_tlb.perms_faults            0                       # Number of TLB faults due to permissions restrictions
system.cpu0.dstage2_mmu.stage2_tlb.read_accesses            0                       # DTB read accesses
system.cpu0.dstage2_mmu.stage2_tlb.write_accesses            0                       # DTB write accesses
system.cpu0.dstage2_mmu.stage2_tlb.inst_accesses            0                       # ITB inst accesses
system.cpu0.dstage2_mmu.stage2_tlb.hits             0                       # DTB hits
system.cpu0.dstage2_mmu.stage2_tlb.misses            0                       # DTB misses
system.cpu0.dstage2_mmu.stage2_tlb.accesses            0                       # DTB accesses
system.cpu0.dtb.walker.walks                        0                       # Table walker walks requested
system.cpu0.dtb.walker.walkRequestOrigin_Requested::Data            0                       # Table walker requests started/completed, data/inst
system.cpu0.dtb.walker.walkRequestOrigin_Requested::Inst            0                       # Table walker requests started/completed, data/inst
system.cpu0.dtb.walker.walkRequestOrigin_Requested::total            0                       # Table walker requests started/completed, data/inst
system.cpu0.dtb.walker.walkRequestOrigin_Completed::Data            0                       # Table walker requests started/completed, data/inst
system.cpu0.dtb.walker.walkRequestOrigin_Completed::Inst            0                       # Table walker requests started/completed, data/inst
system.cpu0.dtb.walker.walkRequestOrigin_Completed::total            0                       # Table walker requests started/completed, data/inst
system.cpu0.dtb.walker.walkRequestOrigin::total            0                       # Table walker requests started/completed, data/inst
system.cpu0.dtb.inst_hits                           0                       # ITB inst hits
system.cpu0.dtb.inst_misses                         0                       # ITB inst misses
system.cpu0.dtb.read_hits                           0                       # DTB read hits
system.cpu0.dtb.read_misses                         0                       # DTB read misses
system.cpu0.dtb.write_hits                          0                       # DTB write hits
system.cpu0.dtb.write_misses                        0                       # DTB write misses
system.cpu0.dtb.flush_tlb                           0                       # Number of times complete TLB was flushed
system.cpu0.dtb.flush_tlb_mva                       0                       # Number of times TLB was flushed by MVA
system.cpu0.dtb.flush_tlb_mva_asid                  0                       # Number of times TLB was flushed by MVA & ASID
system.cpu0.dtb.flush_tlb_asid                      0                       # Number of times TLB was flushed by ASID
system.cpu0.dtb.flush_entries                       0                       # Number of entries that have been flushed from TLB
system.cpu0.dtb.align_faults                        0                       # Number of TLB faults due to alignment restrictions
system.cpu0.dtb.prefetch_faults                     0                       # Number of TLB faults due to prefetch
system.cpu0.dtb.domain_faults                       0                       # Number of TLB faults due to domain restrictions
system.cpu0.dtb.perms_faults                        0                       # Number of TLB faults due to permissions restrictions
system.cpu0.dtb.read_accesses                       0                       # DTB read accesses
system.cpu0.dtb.write_accesses                      0                       # DTB write accesses
system.cpu0.dtb.inst_accesses                       0                       # ITB inst accesses
system.cpu0.dtb.hits                                0                       # DTB hits
system.cpu0.dtb.misses                              0                       # DTB misses
system.cpu0.dtb.accesses                            0                       # DTB accesses
system.cpu0.istage2_mmu.stage2_tlb.walker.walks            0                       # Table walker walks requested
system.cpu0.istage2_mmu.stage2_tlb.walker.walkRequestOrigin_Requested::Data            0                       # Table walker requests started/completed, data/inst
system.cpu0.istage2_mmu.stage2_tlb.walker.walkRequestOrigin_Requested::Inst            0                       # Table walker requests started/completed, data/inst
system.cpu0.istage2_mmu.stage2_tlb.walker.walkRequestOrigin_Requested::total            0                       # Table walker requests started/completed, data/inst
system.cpu0.istage2_mmu.stage2_tlb.walker.walkRequestOrigin_Completed::Data            0                       # Table walker requests started/completed, data/inst
system.cpu0.istage2_mmu.stage2_tlb.walker.walkRequestOrigin_Completed::Inst            0                       # Table walker requests started/completed, data/inst
system.cpu0.istage2_mmu.stage2_tlb.walker.walkRequestOrigin_Completed::total            0                       # Table walker requests started/completed, data/inst
system.cpu0.istage2_mmu.stage2_tlb.walker.walkRequestOrigin::total            0                       # Table walker requests started/completed, data/inst
system.cpu0.istage2_mmu.stage2_tlb.inst_hits            0                       # ITB inst hits
system.cpu0.istage2_mmu.stage2_tlb.inst_misses            0                       # ITB inst misses
system.cpu0.istage2_mmu.stage2_tlb.read_hits            0                       # DTB read hits
system.cpu0.istage2_mmu.stage2_tlb.read_misses            0                       # DTB read misses
system.cpu0.istage2_mmu.stage2_tlb.write_hits            0                       # DTB write hits
system.cpu0.istage2_mmu.stage2_tlb.write_misses            0                       # DTB write misses
system.cpu0.istage2_mmu.stage2_tlb.flush_tlb            0                       # Number of times complete TLB was flushed
system.cpu0.istage2_mmu.stage2_tlb.flush_tlb_mva            0                       # Number of times TLB was flushed by MVA
system.cpu0.istage2_mmu.stage2_tlb.flush_tlb_mva_asid            0                       # Number of times TLB was flushed by MVA & ASID
system.cpu0.istage2_mmu.stage2_tlb.flush_tlb_asid            0                       # Number of times TLB was flushed by ASID
system.cpu0.istage2_mmu.stage2_tlb.flush_entries            0                       # Number of entries that have been flushed from TLB
system.cpu0.istage2_mmu.stage2_tlb.align_faults            0                       # Number of TLB faults due to alignment restrictions
system.cpu0.istage2_mmu.stage2_tlb.prefetch_faults            0                       # Number of TLB faults due to prefetch
system.cpu0.istage2_mmu.stage2_tlb.domain_faults            0                       # Number of TLB faults due to domain restrictions
system.cpu0.istage2_mmu.stage2_tlb.perms_faults            0                       # Number of TLB faults due to permissions restrictions
system.cpu0.istage2_mmu.stage2_tlb.read_accesses            0                       # DTB read accesses
system.cpu0.istage2_mmu.stage2_tlb.write_accesses            0                       # DTB write accesses
system.cpu0.istage2_mmu.stage2_tlb.inst_accesses            0                       # ITB inst accesses
system.cpu0.istage2_mmu.stage2_tlb.hits             0                       # DTB hits
system.cpu0.istage2_mmu.stage2_tlb.misses            0                       # DTB misses
system.cpu0.istage2_mmu.stage2_tlb.accesses            0                       # DTB accesses
system.cpu0.itb.walker.walks                        0                       # Table walker walks requested
system.cpu0.itb.walker.walkRequestOrigin_Requested::Data            0                       # Table walker requests started/completed, data/inst
system.cpu0.itb.walker.walkRequestOrigin_Requested::Inst            0                       # Table walker requests started/completed, data/inst
system.cpu0.itb.walker.walkRequestOrigin_Requested::total            0                       # Table walker requests started/completed, data/inst
system.cpu0.itb.walker.walkRequestOrigin_Completed::Data            0                       # Table walker requests started/completed, data/inst
system.cpu0.itb.walker.walkRequestOrigin_Completed::Inst            0                       # Table walker requests started/completed, data/inst
system.cpu0.itb.walker.walkRequestOrigin_Completed::total            0                       # Table walker requests started/completed, data/inst
system.cpu0.itb.walker.walkRequestOrigin::total            0                       # Table walker requests started/completed, data/inst
system.cpu0.itb.inst_hits                           0                       # ITB inst hits
system.cpu0.itb.inst_misses                         0                       # ITB inst misses
system.cpu0.itb.read_hits                           0                       # DTB read hits
system.cpu0.itb.read_misses                         0                       # DTB read misses
system.cpu0.itb.write_hits                          0                       # DTB write hits
system.cpu0.itb.write_misses                        0                       # DTB write misses
system.cpu0.itb.flush_tlb                           0                       # Number of times complete TLB was flushed
system.cpu0.itb.flush_tlb_mva                       0                       # Number of times TLB was flushed by MVA
system.cpu0.itb.flush_tlb_mva_asid                  0                       # Number of times TLB was flushed by MVA & ASID
system.cpu0.itb.flush_tlb_asid                      0                       # Number of times TLB was flushed by ASID
system.cpu0.itb.flush_entries                       0                       # Number of entries that have been flushed from TLB
system.cpu0.itb.align_faults                        0                       # Number of TLB faults due to alignment restrictions
system.cpu0.itb.prefetch_faults                     0                       # Number of TLB faults due to prefetch
system.cpu0.itb.domain_faults                       0                       # Number of TLB faults due to domain restrictions
system.cpu0.itb.perms_faults                        0                       # Number of TLB faults due to permissions restrictions
system.cpu0.itb.read_accesses                       0                       # DTB read accesses
system.cpu0.itb.write_accesses                      0                       # DTB write accesses
system.cpu0.itb.inst_accesses                       0                       # ITB inst accesses
system.cpu0.itb.hits                                0                       # DTB hits
system.cpu0.itb.misses                              0                       # DTB misses
system.cpu0.itb.accesses                            0                       # DTB accesses
system.cpu0.workload.num_syscalls                 129                       # Number of system calls
system.cpu0.numCycles                         3324422                       # number of cpu cycles simulated
system.cpu0.numWorkItemsStarted                     0                       # number of work items this cpu started
system.cpu0.numWorkItemsCompleted                   0                       # number of work items this cpu completed
system.cpu0.fetch.icacheStallCycles             17559                       # Number of cycles fetch is stalled on an Icache miss
system.cpu0.fetch.Insts                       4420972                       # Number of instructions fetch has processed
system.cpu0.fetch.Branches                     310679                       # Number of branches that fetch encountered
system.cpu0.fetch.predictedBranches            305044                       # Number of branches that fetch has predicted taken
system.cpu0.fetch.Cycles                      3260851                       # Number of cycles fetch has run and was not squashing or blocked
system.cpu0.fetch.SquashCycles                   7401                       # Number of cycles fetch has spent squashing
system.cpu0.fetch.MiscStallCycles                 351                       # Number of cycles fetch has spent waiting on interrupts, or bad addresses, or out of MSHRs
system.cpu0.fetch.PendingTrapStallCycles          109                       # Number of stall cycles due to pending traps
system.cpu0.fetch.IcacheWaitRetryStallCycles          664                       # Number of stall cycles due to full MSHR
system.cpu0.fetch.CacheLines                  1195020                       # Number of cache lines fetched
system.cpu0.fetch.IcacheSquashes                  370                       # Number of outstanding Icache misses that were squashed
system.cpu0.fetch.rateDist::samples           3283234                       # Number of instructions fetched each cycle (Total)
system.cpu0.fetch.rateDist::mean             1.349576                       # Number of instructions fetched each cycle (Total)
system.cpu0.fetch.rateDist::stdev            1.271604                       # Number of instructions fetched each cycle (Total)
system.cpu0.fetch.rateDist::underflows              0      0.00%      0.00% # Number of instructions fetched each cycle (Total)
system.cpu0.fetch.rateDist::0                 1189289     36.22%     36.22% # Number of instructions fetched each cycle (Total)
system.cpu0.fetch.rateDist::1                  848823     25.85%     62.08% # Number of instructions fetched each cycle (Total)
system.cpu0.fetch.rateDist::2                  153216      4.67%     66.74% # Number of instructions fetched each cycle (Total)
system.cpu0.fetch.rateDist::3                 1091906     33.26%    100.00% # Number of instructions fetched each cycle (Total)
system.cpu0.fetch.rateDist::overflows               0      0.00%    100.00% # Number of instructions fetched each cycle (Total)
system.cpu0.fetch.rateDist::min_value               0                       # Number of instructions fetched each cycle (Total)
system.cpu0.fetch.rateDist::max_value               3                       # Number of instructions fetched each cycle (Total)
system.cpu0.fetch.rateDist::total             3283234                       # Number of instructions fetched each cycle (Total)
system.cpu0.fetch.branchRate                 0.093454                       # Number of branch fetches per cycle
system.cpu0.fetch.rate                       1.329847                       # Number of inst fetches per cycle
system.cpu0.decode.IdleCycles                  432661                       # Number of cycles decode is idle
system.cpu0.decode.BlockedCycles              1339857                       # Number of cycles decode is blocked
system.cpu0.decode.RunCycles                   884482                       # Number of cycles decode is running
system.cpu0.decode.UnblockCycles               622871                       # Number of cycles decode is unblocking
system.cpu0.decode.SquashCycles                  3363                       # Number of cycles decode is squashing
system.cpu0.decode.BranchResolved                1002                       # Number of times decode resolved a branch
system.cpu0.decode.BranchMispred                  356                       # Number of times decode detected a branch misprediction
system.cpu0.decode.DecodedInsts               4347779                       # Number of instructions handled by decode
system.cpu0.decode.SquashedInsts                12441                       # Number of squashed instructions handled by decode
system.cpu0.rename.SquashCycles                  3363                       # Number of cycles rename is squashing
system.cpu0.rename.IdleCycles                  783327                       # Number of cycles rename is idle
system.cpu0.rename.BlockCycles                 524348                       # Number of cycles rename is blocking
system.cpu0.rename.serializeStallCycles          9956                       # count of cycles rename stalled for serializing inst
system.cpu0.rename.RunCycles                  1109432                       # Number of cycles rename is running
system.cpu0.rename.UnblockCycles               852808                       # Number of cycles rename is unblocking
system.cpu0.rename.RenamedInsts               4333448                       # Number of instructions processed by rename
system.cpu0.rename.SquashedInsts                 5383                       # Number of squashed instructions processed by rename
system.cpu0.rename.ROBFullEvents               597273                       # Number of times rename has blocked due to ROB full
system.cpu0.rename.IQFullEvents                   217                       # Number of times rename has blocked due to IQ full
system.cpu0.rename.LQFullEvents                    12                       # Number of times rename has blocked due to LQ full
system.cpu0.rename.SQFullEvents                 14583                       # Number of times rename has blocked due to SQ full
system.cpu0.rename.RenamedOperands            5611658                       # Number of destination operands rename has renamed
system.cpu0.rename.RenameLookups             21325746                       # Number of register rename lookups that rename has made
system.cpu0.rename.int_rename_lookups         7175569                       # Number of integer rename lookups
system.cpu0.rename.fp_rename_lookups               22                       # Number of floating rename lookups
system.cpu0.rename.CommittedMaps              5586255                       # Number of HB maps that are committed
system.cpu0.rename.UndoneMaps                   25403                       # Number of HB maps that are undone due to squashing
system.cpu0.rename.serializingInsts               116                       # count of serializing insts renamed
system.cpu0.rename.tempSerializingInsts           114                       # count of temporary serializing insts renamed
system.cpu0.rename.skidInsts                  1423341                       # count of insts added to the skid buffer
system.cpu0.memDep0.insertedLoads             1066370                       # Number of loads inserted to the mem dependence unit.
system.cpu0.memDep0.insertedStores              76725                       # Number of stores inserted to the mem dependence unit.
system.cpu0.memDep0.conflictingLoads              261                       # Number of conflicting loads.
system.cpu0.memDep0.conflictingStores             117                       # Number of conflicting stores.
system.cpu0.iq.iqInstsAdded                   4327639                       # Number of instructions added to the IQ (excludes non-spec)
system.cpu0.iq.iqNonSpecInstsAdded                253                       # Number of non-speculative instructions added to the IQ
system.cpu0.iq.iqInstsIssued                  4323144                       # Number of instructions issued
system.cpu0.iq.iqSquashedInstsIssued              992                       # Number of squashed instructions issued
system.cpu0.iq.iqSquashedInstsExamined          17629                       # Number of squashed instructions iterated over during squash; mainly for profiling
system.cpu0.iq.iqSquashedOperandsExamined        47396                       # Number of squashed operands that are examined and possibly removed from graph
system.cpu0.iq.iqSquashedNonSpecRemoved            53                       # Number of squashed non-spec instructions that were removed
system.cpu0.iq.issued_per_cycle::samples      3283234                       # Number of insts issued each cycle
system.cpu0.iq.issued_per_cycle::mean        1.316733                       # Number of insts issued each cycle
system.cpu0.iq.issued_per_cycle::stdev       1.020953                       # Number of insts issued each cycle
system.cpu0.iq.issued_per_cycle::underflows            0      0.00%      0.00% # Number of insts issued each cycle
system.cpu0.iq.issued_per_cycle::0             732055     22.30%     22.30% # Number of insts issued each cycle
system.cpu0.iq.issued_per_cycle::1            1342079     40.88%     63.17% # Number of insts issued each cycle
system.cpu0.iq.issued_per_cycle::2             706696     21.52%     84.70% # Number of insts issued each cycle
system.cpu0.iq.issued_per_cycle::3             442424     13.48%     98.17% # Number of insts issued each cycle
system.cpu0.iq.issued_per_cycle::4              59499      1.81%     99.99% # Number of insts issued each cycle
system.cpu0.iq.issued_per_cycle::5                481      0.01%    100.00% # Number of insts issued each cycle
system.cpu0.iq.issued_per_cycle::6                  0      0.00%    100.00% # Number of insts issued each cycle
system.cpu0.iq.issued_per_cycle::7                  0      0.00%    100.00% # Number of insts issued each cycle
system.cpu0.iq.issued_per_cycle::8                  0      0.00%    100.00% # Number of insts issued each cycle
system.cpu0.iq.issued_per_cycle::overflows            0      0.00%    100.00% # Number of insts issued each cycle
system.cpu0.iq.issued_per_cycle::min_value            0                       # Number of insts issued each cycle
system.cpu0.iq.issued_per_cycle::max_value            5                       # Number of insts issued each cycle
system.cpu0.iq.issued_per_cycle::total        3283234                       # Number of insts issued each cycle
system.cpu0.iq.fu_full::No_OpClass                  0      0.00%      0.00% # attempts to use FU when none available
system.cpu0.iq.fu_full::IntAlu                  80289     13.99%     13.99% # attempts to use FU when none available
system.cpu0.iq.fu_full::IntMult                  6150      1.07%     15.06% # attempts to use FU when none available
system.cpu0.iq.fu_full::IntDiv                      0      0.00%     15.06% # attempts to use FU when none available
system.cpu0.iq.fu_full::FloatAdd                    0      0.00%     15.06% # attempts to use FU when none available
system.cpu0.iq.fu_full::FloatCmp                    0      0.00%     15.06% # attempts to use FU when none available
system.cpu0.iq.fu_full::FloatCvt                    0      0.00%     15.06% # attempts to use FU when none available
system.cpu0.iq.fu_full::FloatMult                   0      0.00%     15.06% # attempts to use FU when none available
system.cpu0.iq.fu_full::FloatDiv                    0      0.00%     15.06% # attempts to use FU when none available
system.cpu0.iq.fu_full::FloatSqrt                   0      0.00%     15.06% # attempts to use FU when none available
system.cpu0.iq.fu_full::SimdAdd                     0      0.00%     15.06% # attempts to use FU when none available
system.cpu0.iq.fu_full::SimdAddAcc                  0      0.00%     15.06% # attempts to use FU when none available
system.cpu0.iq.fu_full::SimdAlu                     0      0.00%     15.06% # attempts to use FU when none available
system.cpu0.iq.fu_full::SimdCmp                     0      0.00%     15.06% # attempts to use FU when none available
system.cpu0.iq.fu_full::SimdCvt                     0      0.00%     15.06% # attempts to use FU when none available
system.cpu0.iq.fu_full::SimdMisc                    0      0.00%     15.06% # attempts to use FU when none available
system.cpu0.iq.fu_full::SimdMult                    0      0.00%     15.06% # attempts to use FU when none available
system.cpu0.iq.fu_full::SimdMultAcc                 0      0.00%     15.06% # attempts to use FU when none available
system.cpu0.iq.fu_full::SimdShift                   0      0.00%     15.06% # attempts to use FU when none available
system.cpu0.iq.fu_full::SimdShiftAcc                0      0.00%     15.06% # attempts to use FU when none available
system.cpu0.iq.fu_full::SimdSqrt                    0      0.00%     15.06% # attempts to use FU when none available
system.cpu0.iq.fu_full::SimdFloatAdd                0      0.00%     15.06% # attempts to use FU when none available
system.cpu0.iq.fu_full::SimdFloatAlu                0      0.00%     15.06% # attempts to use FU when none available
system.cpu0.iq.fu_full::SimdFloatCmp                0      0.00%     15.06% # attempts to use FU when none available
system.cpu0.iq.fu_full::SimdFloatCvt                0      0.00%     15.06% # attempts to use FU when none available
system.cpu0.iq.fu_full::SimdFloatDiv                0      0.00%     15.06% # attempts to use FU when none available
system.cpu0.iq.fu_full::SimdFloatMisc               0      0.00%     15.06% # attempts to use FU when none available
system.cpu0.iq.fu_full::SimdFloatMult               0      0.00%     15.06% # attempts to use FU when none available
system.cpu0.iq.fu_full::SimdFloatMultAcc            0      0.00%     15.06% # attempts to use FU when none available
system.cpu0.iq.fu_full::SimdFloatSqrt               0      0.00%     15.06% # attempts to use FU when none available
system.cpu0.iq.fu_full::MemRead                484640     84.45%     99.52% # attempts to use FU when none available
system.cpu0.iq.fu_full::MemWrite                 2769      0.48%    100.00% # attempts to use FU when none available
system.cpu0.iq.fu_full::IprAccess                   0      0.00%    100.00% # attempts to use FU when none available
system.cpu0.iq.fu_full::InstPrefetch                0      0.00%    100.00% # attempts to use FU when none available
system.cpu0.iq.FU_type_0::No_OpClass                0      0.00%      0.00% # Type of FU issued
system.cpu0.iq.FU_type_0::IntAlu              2361992     54.64%     54.64% # Type of FU issued
system.cpu0.iq.FU_type_0::IntMult              819491     18.96%     73.59% # Type of FU issued
system.cpu0.iq.FU_type_0::IntDiv                    0      0.00%     73.59% # Type of FU issued
system.cpu0.iq.FU_type_0::FloatAdd                  0      0.00%     73.59% # Type of FU issued
system.cpu0.iq.FU_type_0::FloatCmp                  0      0.00%     73.59% # Type of FU issued
system.cpu0.iq.FU_type_0::FloatCvt                  0      0.00%     73.59% # Type of FU issued
system.cpu0.iq.FU_type_0::FloatMult                 0      0.00%     73.59% # Type of FU issued
system.cpu0.iq.FU_type_0::FloatDiv                  0      0.00%     73.59% # Type of FU issued
system.cpu0.iq.FU_type_0::FloatSqrt                 0      0.00%     73.59% # Type of FU issued
system.cpu0.iq.FU_type_0::SimdAdd                   0      0.00%     73.59% # Type of FU issued
system.cpu0.iq.FU_type_0::SimdAddAcc                0      0.00%     73.59% # Type of FU issued
system.cpu0.iq.FU_type_0::SimdAlu                   0      0.00%     73.59% # Type of FU issued
system.cpu0.iq.FU_type_0::SimdCmp                   0      0.00%     73.59% # Type of FU issued
system.cpu0.iq.FU_type_0::SimdCvt                   0      0.00%     73.59% # Type of FU issued
system.cpu0.iq.FU_type_0::SimdMisc                  0      0.00%     73.59% # Type of FU issued
system.cpu0.iq.FU_type_0::SimdMult                  0      0.00%     73.59% # Type of FU issued
system.cpu0.iq.FU_type_0::SimdMultAcc               0      0.00%     73.59% # Type of FU issued
system.cpu0.iq.FU_type_0::SimdShift                 0      0.00%     73.59% # Type of FU issued
system.cpu0.iq.FU_type_0::SimdShiftAcc              0      0.00%     73.59% # Type of FU issued
system.cpu0.iq.FU_type_0::SimdSqrt                  0      0.00%     73.59% # Type of FU issued
system.cpu0.iq.FU_type_0::SimdFloatAdd              0      0.00%     73.59% # Type of FU issued
system.cpu0.iq.FU_type_0::SimdFloatAlu              0      0.00%     73.59% # Type of FU issued
system.cpu0.iq.FU_type_0::SimdFloatCmp              0      0.00%     73.59% # Type of FU issued
system.cpu0.iq.FU_type_0::SimdFloatCvt              0      0.00%     73.59% # Type of FU issued
system.cpu0.iq.FU_type_0::SimdFloatDiv              0      0.00%     73.59% # Type of FU issued
system.cpu0.iq.FU_type_0::SimdFloatMisc             3      0.00%     73.59% # Type of FU issued
system.cpu0.iq.FU_type_0::SimdFloatMult             0      0.00%     73.59% # Type of FU issued
system.cpu0.iq.FU_type_0::SimdFloatMultAcc            0      0.00%     73.59% # Type of FU issued
system.cpu0.iq.FU_type_0::SimdFloatSqrt             0      0.00%     73.59% # Type of FU issued
system.cpu0.iq.FU_type_0::MemRead             1065447     24.65%     98.24% # Type of FU issued
system.cpu0.iq.FU_type_0::MemWrite              76211      1.76%    100.00% # Type of FU issued
system.cpu0.iq.FU_type_0::IprAccess                 0      0.00%    100.00% # Type of FU issued
system.cpu0.iq.FU_type_0::InstPrefetch              0      0.00%    100.00% # Type of FU issued
system.cpu0.iq.FU_type_0::total               4323144                       # Type of FU issued
system.cpu0.iq.rate                          1.300420                       # Inst issue rate
system.cpu0.iq.fu_busy_cnt                     573848                       # FU busy when requested
system.cpu0.iq.fu_busy_rate                  0.132739                       # FU busy rate (busy events/executed inst)
system.cpu0.iq.int_inst_queue_reads          12504283                       # Number of integer instruction queue reads
system.cpu0.iq.int_inst_queue_writes          4345514                       # Number of integer instruction queue writes
system.cpu0.iq.int_inst_queue_wakeup_accesses      4316285                       # Number of integer instruction queue wakeup accesses
system.cpu0.iq.fp_inst_queue_reads                 79                       # Number of floating instruction queue reads
system.cpu0.iq.fp_inst_queue_writes                28                       # Number of floating instruction queue writes
system.cpu0.iq.fp_inst_queue_wakeup_accesses           28                       # Number of floating instruction queue wakeup accesses
system.cpu0.iq.int_alu_accesses               4896941                       # Number of integer alu accesses
system.cpu0.iq.fp_alu_accesses                     51                       # Number of floating point alu accesses
system.cpu0.iew.lsq.thread0.forwLoads              72                       # Number of loads that had data forwarded from stores
system.cpu0.iew.lsq.thread0.invAddrLoads            0                       # Number of loads ignored due to an invalid address
system.cpu0.iew.lsq.thread0.squashedLoads         6045                       # Number of loads squashed
system.cpu0.iew.lsq.thread0.ignoredResponses            0                       # Number of memory responses ignored because the instruction is squashed
system.cpu0.iew.lsq.thread0.memOrderViolation           22                       # Number of memory ordering violations
system.cpu0.iew.lsq.thread0.squashedStores          960                       # Number of stores squashed
system.cpu0.iew.lsq.thread0.invAddrSwpfs            0                       # Number of software prefetches ignored due to an invalid address
system.cpu0.iew.lsq.thread0.blockedLoads            0                       # Number of blocked loads due to partial load-store forwarding
system.cpu0.iew.lsq.thread0.rescheduledLoads           13                       # Number of loads that were rescheduled
system.cpu0.iew.lsq.thread0.cacheBlocked          325                       # Number of times an access to memory failed due to the cache being blocked
system.cpu0.iew.iewIdleCycles                       0                       # Number of cycles IEW is idle
system.cpu0.iew.iewSquashCycles                  3363                       # Number of cycles IEW is squashing
system.cpu0.iew.iewBlockCycles                   1025                       # Number of cycles IEW is blocking
system.cpu0.iew.iewUnblockCycles                   73                       # Number of cycles IEW is unblocking
system.cpu0.iew.iewDispatchedInsts            4327907                       # Number of instructions dispatched to IQ
system.cpu0.iew.iewDispSquashedInsts                0                       # Number of squashed instructions skipped by dispatch
system.cpu0.iew.iewDispLoadInsts              1066370                       # Number of dispatched load instructions
system.cpu0.iew.iewDispStoreInsts               76725                       # Number of dispatched store instructions
system.cpu0.iew.iewDispNonSpecInsts               112                       # Number of dispatched non-speculative instructions
system.cpu0.iew.iewIQFullEvents                    10                       # Number of times the IQ has become full, causing a stall
system.cpu0.iew.iewLSQFullEvents                   13                       # Number of times the LSQ has become full, causing a stall
system.cpu0.iew.memOrderViolationEvents            22                       # Number of memory order violations
system.cpu0.iew.predictedTakenIncorrect          2357                       # Number of branches that were predicted taken incorrectly
system.cpu0.iew.predictedNotTakenIncorrect         1016                       # Number of branches that were predicted not taken incorrectly
system.cpu0.iew.branchMispredicts                3373                       # Number of branch mispredicts detected at execute
system.cpu0.iew.iewExecutedInsts              4318244                       # Number of executed instructions
system.cpu0.iew.iewExecLoadInsts              1062723                       # Number of load instructions executed
system.cpu0.iew.iewExecSquashedInsts             4900                       # Number of squashed instructions skipped in execute
system.cpu0.iew.exec_swp                            0                       # number of swp insts executed
system.cpu0.iew.exec_nop                           15                       # number of nop insts executed
system.cpu0.iew.exec_refs                     1138753                       # number of memory reference insts executed
system.cpu0.iew.exec_branches                  301451                       # Number of branches executed
system.cpu0.iew.exec_stores                     76030                       # Number of stores executed
system.cpu0.iew.exec_rate                    1.298946                       # Inst execution rate
system.cpu0.iew.wb_sent                       4316442                       # cumulative count of insts sent to commit
system.cpu0.iew.wb_count                      4316313                       # cumulative count of insts written-back
system.cpu0.iew.wb_producers                  2919808                       # num instructions producing a value
system.cpu0.iew.wb_consumers                  3905818                       # num instructions consuming a value
system.cpu0.iew.wb_penalized                        0                       # number of instrctions required to write to 'other' IQ
system.cpu0.iew.wb_rate                      1.298365                       # insts written-back per cycle
system.cpu0.iew.wb_fanout                    0.747554                       # average fanout of values written-back
system.cpu0.iew.wb_penalized_rate                   0                       # fraction of instructions written-back that wrote to 'other' IQ
system.cpu0.commit.commitSquashedInsts          14124                       # The number of squashed insts skipped by commit
system.cpu0.commit.commitNonSpecStalls            200                       # The number of times commit has been forced to stall to communicate backwards
system.cpu0.commit.branchMispredicts             3316                       # The number of times a branch was mispredicted
system.cpu0.commit.committed_per_cycle::samples      3279355                       # Number of insts commited each cycle
system.cpu0.commit.committed_per_cycle::mean     1.314363                       # Number of insts commited each cycle
system.cpu0.commit.committed_per_cycle::stdev     1.813476                       # Number of insts commited each cycle
system.cpu0.commit.committed_per_cycle::underflows            0      0.00%      0.00% # Number of insts commited each cycle
system.cpu0.commit.committed_per_cycle::0      1502896     45.83%     45.83% # Number of insts commited each cycle
system.cpu0.commit.committed_per_cycle::1       726926     22.17%     68.00% # Number of insts commited each cycle
system.cpu0.commit.committed_per_cycle::2       487469     14.86%     82.86% # Number of insts commited each cycle
system.cpu0.commit.committed_per_cycle::3       244940      7.47%     90.33% # Number of insts commited each cycle
system.cpu0.commit.committed_per_cycle::4         2273      0.07%     90.40% # Number of insts commited each cycle
system.cpu0.commit.committed_per_cycle::5       188693      5.75%     96.15% # Number of insts commited each cycle
system.cpu0.commit.committed_per_cycle::6        32305      0.99%     97.14% # Number of insts commited each cycle
system.cpu0.commit.committed_per_cycle::7        23632      0.72%     97.86% # Number of insts commited each cycle
system.cpu0.commit.committed_per_cycle::8        70221      2.14%    100.00% # Number of insts commited each cycle
system.cpu0.commit.committed_per_cycle::overflows            0      0.00%    100.00% # Number of insts commited each cycle
system.cpu0.commit.committed_per_cycle::min_value            0                       # Number of insts commited each cycle
system.cpu0.commit.committed_per_cycle::max_value            8                       # Number of insts commited each cycle
system.cpu0.commit.committed_per_cycle::total      3279355                       # Number of insts commited each cycle
[...]
system.l2.ReadExReq_avg_mshr_miss_latency::total 86420.767946                       # average ReadExReq mshr miss latency
system.l2.demand_avg_mshr_miss_latency::cpu0.inst 61697.838346                       # average overall mshr miss latency
system.l2.demand_avg_mshr_miss_latency::cpu0.data 81057.427723                       # average overall mshr miss latency
system.l2.demand_avg_mshr_miss_latency::cpu1.inst 83671.875000                       # average overall mshr miss latency
system.l2.demand_avg_mshr_miss_latency::cpu1.data 88136.973180                       # average overall mshr miss latency
system.l2.demand_avg_mshr_miss_latency::cpu2.inst       218250                       # average overall mshr miss latency
system.l2.demand_avg_mshr_miss_latency::cpu2.data 86994.252874                       # average overall mshr miss latency
system.l2.demand_avg_mshr_miss_latency::cpu3.inst        67000                       # average overall mshr miss latency
system.l2.demand_avg_mshr_miss_latency::cpu3.data 84601.711027                       # average overall mshr miss latency
system.l2.demand_avg_mshr_miss_latency::cpu4.inst 78916.666667                       # average overall mshr miss latency
system.l2.demand_avg_mshr_miss_latency::cpu4.data 86386.973180                       # average overall mshr miss latency
system.l2.demand_avg_mshr_miss_latency::cpu5.data 87712.643678                       # average overall mshr miss latency
system.l2.demand_avg_mshr_miss_latency::cpu6.inst        52250                       # average overall mshr miss latency
system.l2.demand_avg_mshr_miss_latency::cpu6.data 87341.346154                       # average overall mshr miss latency
system.l2.demand_avg_mshr_miss_latency::cpu7.inst        81850                       # average overall mshr miss latency
system.l2.demand_avg_mshr_miss_latency::cpu7.data 87394.636015                       # average overall mshr miss latency
system.l2.demand_avg_mshr_miss_latency::total 81260.854928                       # average overall mshr miss latency
system.l2.overall_avg_mshr_miss_latency::cpu0.inst 61697.838346                       # average overall mshr miss latency
system.l2.overall_avg_mshr_miss_latency::cpu0.data 81057.427723                       # average overall mshr miss latency
system.l2.overall_avg_mshr_miss_latency::cpu1.inst 83671.875000                       # average overall mshr miss latency
system.l2.overall_avg_mshr_miss_latency::cpu1.data 88136.973180                       # average overall mshr miss latency
system.l2.overall_avg_mshr_miss_latency::cpu2.inst       218250                       # average overall mshr miss latency
system.l2.overall_avg_mshr_miss_latency::cpu2.data 86994.252874                       # average overall mshr miss latency
system.l2.overall_avg_mshr_miss_latency::cpu3.inst        67000                       # average overall mshr miss latency
system.l2.overall_avg_mshr_miss_latency::cpu3.data 84601.711027                       # average overall mshr miss latency
system.l2.overall_avg_mshr_miss_latency::cpu4.inst 78916.666667                       # average overall mshr miss latency
system.l2.overall_avg_mshr_miss_latency::cpu4.data 86386.973180                       # average overall mshr miss latency
system.l2.overall_avg_mshr_miss_latency::cpu5.data 87712.643678                       # average overall mshr miss latency
system.l2.overall_avg_mshr_miss_latency::cpu6.inst        52250                       # average overall mshr miss latency
system.l2.overall_avg_mshr_miss_latency::cpu6.data 87341.346154                       # average overall mshr miss latency
system.l2.overall_avg_mshr_miss_latency::cpu7.inst        81850                       # average overall mshr miss latency
system.l2.overall_avg_mshr_miss_latency::cpu7.data 87394.636015                       # average overall mshr miss latency
system.l2.overall_avg_mshr_miss_latency::l2.prefetcher 55291.879933                       # average overall mshr miss latency
system.l2.overall_avg_mshr_miss_latency::total 65894.294879                       # average overall mshr miss latency
system.l2.no_allocate_misses                        0                       # Number of misses that were no-allocate
system.membus.trans_dist::ReadReq                4850                       # Transaction distribution
system.membus.trans_dist::ReadResp               4849                       # Transaction distribution
system.membus.trans_dist::UpgradeReq               14                       # Transaction distribution
system.membus.trans_dist::SCUpgradeReq             20                       # Transaction distribution
system.membus.trans_dist::UpgradeResp               7                       # Transaction distribution
system.membus.trans_dist::ReadExReq              2214                       # Transaction distribution
system.membus.trans_dist::ReadExResp             2214                       # Transaction distribution
system.membus.pkt_count_system.l2.mem_side::system.mem_ctrls.port        14168                       # Packet count per connected master and slave (bytes)
system.membus.pkt_count::total                  14168                       # Packet count per connected master and slave (bytes)
system.membus.pkt_size_system.l2.mem_side::system.mem_ctrls.port       452032                       # Cumulative packet size per connected master and slave (bytes)
system.membus.pkt_size::total                  452032                       # Cumulative packet size per connected master and slave (bytes)
system.membus.snoops                               27                       # Total snoops (count)
system.membus.snoop_fanout::samples              7098                       # Request fanout histogram
system.membus.snoop_fanout::mean                    0                       # Request fanout histogram
system.membus.snoop_fanout::stdev                   0                       # Request fanout histogram
system.membus.snoop_fanout::underflows              0      0.00%      0.00% # Request fanout histogram
system.membus.snoop_fanout::0                    7098    100.00%    100.00% # Request fanout histogram
system.membus.snoop_fanout::1                       0      0.00%    100.00% # Request fanout histogram
system.membus.snoop_fanout::overflows               0      0.00%    100.00% # Request fanout histogram
system.membus.snoop_fanout::min_value               0                       # Request fanout histogram
system.membus.snoop_fanout::max_value               0                       # Request fanout histogram
system.membus.snoop_fanout::total                7098                       # Request fanout histogram
system.membus.reqLayer0.occupancy             9527015                       # Layer occupancy (ticks)
system.membus.reqLayer0.utilization               0.6                       # Layer utilization (%)
system.membus.respLayer1.occupancy           36862330                       # Layer occupancy (ticks)
system.membus.respLayer1.utilization              2.2                       # Layer utilization (%)
system.tol2bus.trans_dist::ReadReq            2119432                       # Transaction distribution
system.tol2bus.trans_dist::ReadResp           2119430                       # Transaction distribution
system.tol2bus.trans_dist::Writeback           302317                       # Transaction distribution
system.tol2bus.trans_dist::HardPFReq             4719                       # Transaction distribution
system.tol2bus.trans_dist::UpgradeReq              14                       # Transaction distribution
system.tol2bus.trans_dist::SCUpgradeReq            22                       # Transaction distribution
system.tol2bus.trans_dist::UpgradeResp             36                       # Transaction distribution
system.tol2bus.trans_dist::SCUpgradeFailReq            8                       # Transaction distribution
system.tol2bus.trans_dist::UpgradeFailResp            8                       # Transaction distribution
system.tol2bus.trans_dist::ReadExReq            20702                       # Transaction distribution
system.tol2bus.trans_dist::ReadExResp           20702                       # Transaction distribution
system.tol2bus.pkt_count_system.cpu0.icache.mem_side::system.l2.cpu_side         1320                       # Packet count per connected master and slave (bytes)
system.tol2bus.pkt_count_system.cpu0.dcache.mem_side::system.l2.cpu_side       360176                       # Packet count per connected master and slave (bytes)
system.tol2bus.pkt_count_system.cpu1.icache.mem_side::system.l2.cpu_side          104                       # Packet count per connected master and slave (bytes)
system.tol2bus.pkt_count_system.cpu1.dcache.mem_side::system.l2.cpu_side       331098                       # Packet count per connected master and slave (bytes)
system.tol2bus.pkt_count_system.cpu2.icache.mem_side::system.l2.cpu_side          106                       # Packet count per connected master and slave (bytes)
system.tol2bus.pkt_count_system.cpu2.dcache.mem_side::system.l2.cpu_side       331363                       # Packet count per connected master and slave (bytes)
system.tol2bus.pkt_count_system.cpu3.icache.mem_side::system.l2.cpu_side          106                       # Packet count per connected master and slave (bytes)
system.tol2bus.pkt_count_system.cpu3.dcache.mem_side::system.l2.cpu_side       348981                       # Packet count per connected master and slave (bytes)
system.tol2bus.pkt_count_system.cpu4.icache.mem_side::system.l2.cpu_side          106                       # Packet count per connected master and slave (bytes)
system.tol2bus.pkt_count_system.cpu4.dcache.mem_side::system.l2.cpu_side       349247                       # Packet count per connected master and slave (bytes)
system.tol2bus.pkt_count_system.cpu5.icache.mem_side::system.l2.cpu_side          110                       # Packet count per connected master and slave (bytes)
system.tol2bus.pkt_count_system.cpu5.dcache.mem_side::system.l2.cpu_side       332303                       # Packet count per connected master and slave (bytes)
system.tol2bus.pkt_count_system.cpu6.icache.mem_side::system.l2.cpu_side          110                       # Packet count per connected master and slave (bytes)
system.tol2bus.pkt_count_system.cpu6.dcache.mem_side::system.l2.cpu_side       338105                       # Packet count per connected master and slave (bytes)
system.tol2bus.pkt_count_system.cpu7.icache.mem_side::system.l2.cpu_side          108                       # Packet count per connected master and slave (bytes)
system.tol2bus.pkt_count_system.cpu7.dcache.mem_side::system.l2.cpu_side       354086                       # Packet count per connected master and slave (bytes)
system.tol2bus.pkt_count::total               2747429                       # Packet count per connected master and slave (bytes)
system.tol2bus.pkt_size_system.cpu0.icache.mem_side::system.l2.cpu_side        42176                       # Cumulative packet size per connected master and slave (bytes)
system.tol2bus.pkt_size_system.cpu0.dcache.mem_side::system.l2.cpu_side      5686080                       # Cumulative packet size per connected master and slave (bytes)
system.tol2bus.pkt_size_system.cpu1.icache.mem_side::system.l2.cpu_side         3328                       # Cumulative packet size per connected master and slave (bytes)
system.tol2bus.pkt_size_system.cpu1.dcache.mem_side::system.l2.cpu_side      4113152                       # Cumulative packet size per connected master and slave (bytes)
system.tol2bus.pkt_size_system.cpu2.icache.mem_side::system.l2.cpu_side         3392                       # Cumulative packet size per connected master and slave (bytes)
system.tol2bus.pkt_size_system.cpu2.dcache.mem_side::system.l2.cpu_side      4129920                       # Cumulative packet size per connected master and slave (bytes)
system.tol2bus.pkt_size_system.cpu3.icache.mem_side::system.l2.cpu_side         3392                       # Cumulative packet size per connected master and slave (bytes)
system.tol2bus.pkt_size_system.cpu3.dcache.mem_side::system.l2.cpu_side      5257536                       # Cumulative packet size per connected master and slave (bytes)
system.tol2bus.pkt_size_system.cpu4.icache.mem_side::system.l2.cpu_side         3392                       # Cumulative packet size per connected master and slave (bytes)
system.tol2bus.pkt_size_system.cpu4.dcache.mem_side::system.l2.cpu_side      5274816                       # Cumulative packet size per connected master and slave (bytes)
system.tol2bus.pkt_size_system.cpu5.icache.mem_side::system.l2.cpu_side         3520                       # Cumulative packet size per connected master and slave (bytes)
system.tol2bus.pkt_size_system.cpu5.dcache.mem_side::system.l2.cpu_side      4190336                       # Cumulative packet size per connected master and slave (bytes)
system.tol2bus.pkt_size_system.cpu6.icache.mem_side::system.l2.cpu_side         3520                       # Cumulative packet size per connected master and slave (bytes)
system.tol2bus.pkt_size_system.cpu6.dcache.mem_side::system.l2.cpu_side      4561408                       # Cumulative packet size per connected master and slave (bytes)
system.tol2bus.pkt_size_system.cpu7.icache.mem_side::system.l2.cpu_side         3456                       # Cumulative packet size per connected master and slave (bytes)
system.tol2bus.pkt_size_system.cpu7.dcache.mem_side::system.l2.cpu_side      5584064                       # Cumulative packet size per connected master and slave (bytes)
system.tol2bus.pkt_size::total               38863488                       # Cumulative packet size per connected master and slave (bytes)
system.tol2bus.snoops                         1839961                       # Total snoops (count)
system.tol2bus.snoop_fanout::samples          2447219                       # Request fanout histogram
system.tol2bus.snoop_fanout::mean           15.001928                       # Request fanout histogram
system.tol2bus.snoop_fanout::stdev           0.043870                       # Request fanout histogram
system.tol2bus.snoop_fanout::underflows             0      0.00%      0.00% # Request fanout histogram
system.tol2bus.snoop_fanout::0                      0      0.00%      0.00% # Request fanout histogram
system.tol2bus.snoop_fanout::1                      0      0.00%      0.00% # Request fanout histogram
system.tol2bus.snoop_fanout::2                      0      0.00%      0.00% # Request fanout histogram
system.tol2bus.snoop_fanout::3                      0      0.00%      0.00% # Request fanout histogram
system.tol2bus.snoop_fanout::4                      0      0.00%      0.00% # Request fanout histogram
system.tol2bus.snoop_fanout::5                      0      0.00%      0.00% # Request fanout histogram
system.tol2bus.snoop_fanout::6                      0      0.00%      0.00% # Request fanout histogram
system.tol2bus.snoop_fanout::7                      0      0.00%      0.00% # Request fanout histogram
system.tol2bus.snoop_fanout::8                      0      0.00%      0.00% # Request fanout histogram
system.tol2bus.snoop_fanout::9                      0      0.00%      0.00% # Request fanout histogram
system.tol2bus.snoop_fanout::10                     0      0.00%      0.00% # Request fanout histogram
system.tol2bus.snoop_fanout::11                     0      0.00%      0.00% # Request fanout histogram
system.tol2bus.snoop_fanout::12                     0      0.00%      0.00% # Request fanout histogram
system.tol2bus.snoop_fanout::13                     0      0.00%      0.00% # Request fanout histogram
system.tol2bus.snoop_fanout::14                     0      0.00%      0.00% # Request fanout histogram
system.tol2bus.snoop_fanout::15               2442500     99.81%     99.81% # Request fanout histogram
system.tol2bus.snoop_fanout::16                  4719      0.19%    100.00% # Request fanout histogram
system.tol2bus.snoop_fanout::overflows              0      0.00%    100.00% # Request fanout histogram
system.tol2bus.snoop_fanout::min_value             15                       # Request fanout histogram
system.tol2bus.snoop_fanout::max_value             16                       # Request fanout histogram
system.tol2bus.snoop_fanout::total            2447219                       # Request fanout histogram
system.tol2bus.reqLayer0.occupancy         1523569744                       # Layer occupancy (ticks)
system.tol2bus.reqLayer0.utilization             91.7                       # Layer utilization (%)
system.tol2bus.respLayer0.occupancy           1099198                       # Layer occupancy (ticks)
system.tol2bus.respLayer0.utilization             0.1                       # Layer utilization (%)
system.tol2bus.respLayer1.occupancy         500995766                       # Layer occupancy (ticks)
system.tol2bus.respLayer1.utilization            30.1                       # Layer utilization (%)
system.tol2bus.respLayer4.occupancy             86214                       # Layer occupancy (ticks)
system.tol2bus.respLayer4.utilization             0.0                       # Layer utilization (%)
system.tol2bus.respLayer5.occupancy         499170677                       # Layer occupancy (ticks)
system.tol2bus.respLayer5.utilization            30.0                       # Layer utilization (%)
system.tol2bus.respLayer8.occupancy             87954                       # Layer occupancy (ticks)
system.tol2bus.respLayer8.utilization             0.0                       # Layer utilization (%)
system.tol2bus.respLayer9.occupancy         498762228                       # Layer occupancy (ticks)
system.tol2bus.respLayer9.utilization            30.0                       # Layer utilization (%)
system.tol2bus.respLayer12.occupancy            85462                       # Layer occupancy (ticks)
system.tol2bus.respLayer12.utilization            0.0                       # Layer utilization (%)
system.tol2bus.respLayer13.occupancy        491853972                       # Layer occupancy (ticks)
system.tol2bus.respLayer13.utilization           29.6                       # Layer utilization (%)
system.tol2bus.respLayer16.occupancy            84704                       # Layer occupancy (ticks)
system.tol2bus.respLayer16.utilization            0.0                       # Layer utilization (%)
system.tol2bus.respLayer17.occupancy        489529566                       # Layer occupancy (ticks)
system.tol2bus.respLayer17.utilization           29.5                       # Layer utilization (%)
system.tol2bus.respLayer20.occupancy            87459                       # Layer occupancy (ticks)
system.tol2bus.respLayer20.utilization            0.0                       # Layer utilization (%)
system.tol2bus.respLayer21.occupancy        499229057                       # Layer occupancy (ticks)
system.tol2bus.respLayer21.utilization           30.0                       # Layer utilization (%)
system.tol2bus.respLayer24.occupancy            86968                       # Layer occupancy (ticks)
system.tol2bus.respLayer24.utilization            0.0                       # Layer utilization (%)
system.tol2bus.respLayer25.occupancy        495107345                       # Layer occupancy (ticks)
system.tol2bus.respLayer25.utilization           29.8                       # Layer utilization (%)
system.tol2bus.respLayer28.occupancy            82240                       # Layer occupancy (ticks)
system.tol2bus.respLayer28.utilization            0.0                       # Layer utilization (%)
system.tol2bus.respLayer29.occupancy        488526400                       # Layer occupancy (ticks)
system.tol2bus.respLayer29.utilization           29.4                       # Layer utilization (%)

---------- End Simulation Statistics   ----------
