
---------- Begin Simulation Statistics ----------
sim_seconds                                  0.001600                       # Number of seconds simulated
sim_ticks                                  1599646500                       # Number of ticks simulated
final_tick                                 1599646500                       # Number of ticks from beginning of simulation (restored from checkpoints and never reset)
sim_freq                                 1000000000000                       # Frequency of simulated ticks
host_inst_rate                                 143832                       # Simulator instruction rate (inst/s)
host_op_rate                                   144367                       # Simulator op (including micro ops) rate (op/s)
host_tick_rate                                6521993                       # Simulator tick rate (ticks/s)
host_mem_usage                                 686116                       # Number of bytes of host memory used
host_seconds                                   245.27                       # Real time elapsed on the host
sim_insts                                    35277499                       # Number of instructions simulated
sim_ops                                      35408845                       # Number of ops (including micro ops) simulated
system.voltage_domain.voltage                       1                       # Voltage in Volts
system.clk_domain.clock                          1000                       # Clock period in ticks
system.mem_ctrls.bytes_read::cpu0.inst          32320                       # Number of bytes read from this memory
system.mem_ctrls.bytes_read::cpu0.data         295744                       # Number of bytes read from this memory
system.mem_ctrls.bytes_read::cpu1.inst           1728                       # Number of bytes read from this memory
system.mem_ctrls.bytes_read::cpu1.data          16960                       # Number of bytes read from this memory
system.mem_ctrls.bytes_read::cpu2.data          16960                       # Number of bytes read from this memory
system.mem_ctrls.bytes_read::cpu3.inst             64                       # Number of bytes read from this memory
system.mem_ctrls.bytes_read::cpu3.data          16832                       # Number of bytes read from this memory
system.mem_ctrls.bytes_read::cpu4.inst             64                       # Number of bytes read from this memory
system.mem_ctrls.bytes_read::cpu4.data          16704                       # Number of bytes read from this memory
system.mem_ctrls.bytes_read::cpu5.inst            320                       # Number of bytes read from this memory
system.mem_ctrls.bytes_read::cpu5.data          16768                       # Number of bytes read from this memory
system.mem_ctrls.bytes_read::cpu6.data          16832                       # Number of bytes read from this memory
system.mem_ctrls.bytes_read::cpu7.inst            128                       # Number of bytes read from this memory
system.mem_ctrls.bytes_read::cpu7.data          16704                       # Number of bytes read from this memory
system.mem_ctrls.bytes_read::total             448128                       # Number of bytes read from this memory
system.mem_ctrls.bytes_inst_read::cpu0.inst        32320                       # Number of instructions bytes read from this memory
system.mem_ctrls.bytes_inst_read::cpu1.inst         1728                       # Number of instructions bytes read from this memory
system.mem_ctrls.bytes_inst_read::cpu3.inst           64                       # Number of instructions bytes read from this memory
system.mem_ctrls.bytes_inst_read::cpu4.inst           64                       # Number of instructions bytes read from this memory
system.mem_ctrls.bytes_inst_read::cpu5.inst          320                       # Number of instructions bytes read from this memory
system.mem_ctrls.bytes_inst_read::cpu7.inst          128                       # Number of instructions bytes read from this memory
system.mem_ctrls.bytes_inst_read::total         34624                       # Number of instructions bytes read from this memory
system.mem_ctrls.num_reads::cpu0.inst             505                       # Number of read requests responded to by this memory
system.mem_ctrls.num_reads::cpu0.data            4621                       # Number of read requests responded to by this memory
system.mem_ctrls.num_reads::cpu1.inst              27                       # Number of read requests responded to by this memory
system.mem_ctrls.num_reads::cpu1.data             265                       # Number of read requests responded to by this memory
system.mem_ctrls.num_reads::cpu2.data             265                       # Number of read requests responded to by this memory
system.mem_ctrls.num_reads::cpu3.inst               1                       # Number of read requests responded to by this memory
system.mem_ctrls.num_reads::cpu3.data             263                       # Number of read requests responded to by this memory
system.mem_ctrls.num_reads::cpu4.inst               1                       # Number of read requests responded to by this memory
system.mem_ctrls.num_reads::cpu4.data             261                       # Number of read requests responded to by this memory
system.mem_ctrls.num_reads::cpu5.inst               5                       # Number of read requests responded to by this memory
system.mem_ctrls.num_reads::cpu5.data             262                       # Number of read requests responded to by this memory
system.mem_ctrls.num_reads::cpu6.data             263                       # Number of read requests responded to by this memory
system.mem_ctrls.num_reads::cpu7.inst               2                       # Number of read requests responded to by this memory
system.mem_ctrls.num_reads::cpu7.data             261                       # Number of read requests responded to by this memory
system.mem_ctrls.num_reads::total                7002                       # Number of read requests responded to by this memory
system.mem_ctrls.bw_read::cpu0.inst          20204464                       # Total read bandwidth from this memory (bytes/s)
system.mem_ctrls.bw_read::cpu0.data         184880847                       # Total read bandwidth from this memory (bytes/s)
system.mem_ctrls.bw_read::cpu1.inst           1080239                       # Total read bandwidth from this memory (bytes/s)
system.mem_ctrls.bw_read::cpu1.data          10602342                       # Total read bandwidth from this memory (bytes/s)
system.mem_ctrls.bw_read::cpu2.data          10602342                       # Total read bandwidth from this memory (bytes/s)
system.mem_ctrls.bw_read::cpu3.inst             40009                       # Total read bandwidth from this memory (bytes/s)
system.mem_ctrls.bw_read::cpu3.data          10522325                       # Total read bandwidth from this memory (bytes/s)
system.mem_ctrls.bw_read::cpu4.inst             40009                       # Total read bandwidth from this memory (bytes/s)
system.mem_ctrls.bw_read::cpu4.data          10442307                       # Total read bandwidth from this memory (bytes/s)
system.mem_ctrls.bw_read::cpu5.inst            200044                       # Total read bandwidth from this memory (bytes/s)
system.mem_ctrls.bw_read::cpu5.data          10482316                       # Total read bandwidth from this memory (bytes/s)
system.mem_ctrls.bw_read::cpu6.data          10522325                       # Total read bandwidth from this memory (bytes/s)
system.mem_ctrls.bw_read::cpu7.inst             80018                       # Total read bandwidth from this memory (bytes/s)
system.mem_ctrls.bw_read::cpu7.data          10442307                       # Total read bandwidth from this memory (bytes/s)
system.mem_ctrls.bw_read::total             280141894                       # Total read bandwidth from this memory (bytes/s)
system.mem_ctrls.bw_inst_read::cpu0.inst     20204464                       # Instruction read bandwidth from this memory (bytes/s)
system.mem_ctrls.bw_inst_read::cpu1.inst      1080239                       # Instruction read bandwidth from this memory (bytes/s)
system.mem_ctrls.bw_inst_read::cpu3.inst        40009                       # Instruction read bandwidth from this memory (bytes/s)
system.mem_ctrls.bw_inst_read::cpu4.inst        40009                       # Instruction read bandwidth from this memory (bytes/s)
system.mem_ctrls.bw_inst_read::cpu5.inst       200044                       # Instruction read bandwidth from this memory (bytes/s)
system.mem_ctrls.bw_inst_read::cpu7.inst        80018                       # Instruction read bandwidth from this memory (bytes/s)
system.mem_ctrls.bw_inst_read::total         21644782                       # Instruction read bandwidth from this memory (bytes/s)
system.mem_ctrls.bw_total::cpu0.inst         20204464                       # Total bandwidth to/from this memory (bytes/s)
system.mem_ctrls.bw_total::cpu0.data        184880847                       # Total bandwidth to/from this memory (bytes/s)
system.mem_ctrls.bw_total::cpu1.inst          1080239                       # Total bandwidth to/from this memory (bytes/s)
system.mem_ctrls.bw_total::cpu1.data         10602342                       # Total bandwidth to/from this memory (bytes/s)
system.mem_ctrls.bw_total::cpu2.data         10602342                       # Total bandwidth to/from this memory (bytes/s)
system.mem_ctrls.bw_total::cpu3.inst            40009                       # Total bandwidth to/from this memory (bytes/s)
system.mem_ctrls.bw_total::cpu3.data         10522325                       # Total bandwidth to/from this memory (bytes/s)
system.mem_ctrls.bw_total::cpu4.inst            40009                       # Total bandwidth to/from this memory (bytes/s)
system.mem_ctrls.bw_total::cpu4.data         10442307                       # Total bandwidth to/from this memory (bytes/s)
system.mem_ctrls.bw_total::cpu5.inst           200044                       # Total bandwidth to/from this memory (bytes/s)
system.mem_ctrls.bw_total::cpu5.data         10482316                       # Total bandwidth to/from this memory (bytes/s)
system.mem_ctrls.bw_total::cpu6.data         10522325                       # Total bandwidth to/from this memory (bytes/s)
system.mem_ctrls.bw_total::cpu7.inst            80018                       # Total bandwidth to/from this memory (bytes/s)
system.mem_ctrls.bw_total::cpu7.data         10442307                       # Total bandwidth to/from this memory (bytes/s)
system.mem_ctrls.bw_total::total            280141894                       # Total bandwidth to/from this memory (bytes/s)
system.mem_ctrls.readReqs                        7002                       # Number of read requests accepted
system.mem_ctrls.writeReqs                          0                       # Number of write requests accepted
system.mem_ctrls.readBursts                      7002                       # Number of DRAM read bursts, including those serviced by the write queue
system.mem_ctrls.writeBursts                        0                       # Number of DRAM write bursts, including those merged in the write queue
system.mem_ctrls.bytesReadDRAM                 448128                       # Total number of bytes read from DRAM
system.mem_ctrls.bytesReadWrQ                       0                       # Total number of bytes read from write queue
system.mem_ctrls.bytesWritten                       0                       # Total number of bytes written to DRAM
system.mem_ctrls.bytesReadSys                  448128                       # Total read bytes from the system interface side
system.mem_ctrls.bytesWrittenSys                    0                       # Total written bytes from the system interface side
system.mem_ctrls.servicedByWrQ                      0                       # Number of DRAM read bursts serviced by the write queue
system.mem_ctrls.mergedWrBursts                     0                       # Number of DRAM write bursts merged with an existing one
system.mem_ctrls.neitherReadNorWriteReqs            6                       # Number of requests that are neither read nor write
system.mem_ctrls.perBankRdBursts::0               507                       # Per bank write bursts
system.mem_ctrls.perBankRdBursts::1               512                       # Per bank write bursts
system.mem_ctrls.perBankRdBursts::2               518                       # Per bank write bursts
system.mem_ctrls.perBankRdBursts::3               478                       # Per bank write bursts
system.mem_ctrls.perBankRdBursts::4               422                       # Per bank write bursts
system.mem_ctrls.perBankRdBursts::5               445                       # Per bank write bursts
system.mem_ctrls.perBankRdBursts::6               466                       # Per bank write bursts
system.mem_ctrls.perBankRdBursts::7               415                       # Per bank write bursts
system.mem_ctrls.perBankRdBursts::8               399                       # Per bank write bursts
system.mem_ctrls.perBankRdBursts::9               394                       # Per bank write bursts
system.mem_ctrls.perBankRdBursts::10              384                       # Per bank write bursts
system.mem_ctrls.perBankRdBursts::11              396                       # Per bank write bursts
system.mem_ctrls.perBankRdBursts::12              390                       # Per bank write bursts
system.mem_ctrls.perBankRdBursts::13              417                       # Per bank write bursts
system.mem_ctrls.perBankRdBursts::14              422                       # Per bank write bursts
system.mem_ctrls.perBankRdBursts::15              437                       # Per bank write bursts
system.mem_ctrls.perBankWrBursts::0                 0                       # Per bank write bursts
system.mem_ctrls.perBankWrBursts::1                 0                       # Per bank write bursts
system.mem_ctrls.perBankWrBursts::2                 0                       # Per bank write bursts
system.mem_ctrls.perBankWrBursts::3                 0                       # Per bank write bursts
system.mem_ctrls.perBankWrBursts::4                 0                       # Per bank write bursts
system.mem_ctrls.perBankWrBursts::5                 0                       # Per bank write bursts
system.mem_ctrls.perBankWrBursts::6                 0                       # Per bank write bursts
system.mem_ctrls.perBankWrBursts::7                 0                       # Per bank write bursts
system.mem_ctrls.perBankWrBursts::8                 0                       # Per bank write bursts
system.mem_ctrls.perBankWrBursts::9                 0                       # Per bank write bursts
system.mem_ctrls.perBankWrBursts::10                0                       # Per bank write bursts
system.mem_ctrls.perBankWrBursts::11                0                       # Per bank write bursts
system.mem_ctrls.perBankWrBursts::12                0                       # Per bank write bursts
system.mem_ctrls.perBankWrBursts::13                0                       # Per bank write bursts
system.mem_ctrls.perBankWrBursts::14                0                       # Per bank write bursts
system.mem_ctrls.perBankWrBursts::15                0                       # Per bank write bursts
system.mem_ctrls.numRdRetry                         0                       # Number of times read queue was full causing retry
system.mem_ctrls.numWrRetry                         0                       # Number of times write queue was full causing retry
system.mem_ctrls.totGap                    1599607000                       # Total gap between requests
system.mem_ctrls.readPktSize::0                     0                       # Read request sizes (log2)
system.mem_ctrls.readPktSize::1                     0                       # Read request sizes (log2)
system.mem_ctrls.readPktSize::2                     0                       # Read request sizes (log2)
system.mem_ctrls.readPktSize::3                     0                       # Read request sizes (log2)
system.mem_ctrls.readPktSize::4                     0                       # Read request sizes (log2)
system.mem_ctrls.readPktSize::5                     0                       # Read request sizes (log2)
system.mem_ctrls.readPktSize::6                  7002                       # Read request sizes (log2)
system.mem_ctrls.writePktSize::0                    0                       # Write request sizes (log2)
system.mem_ctrls.writePktSize::1                    0                       # Write request sizes (log2)
system.mem_ctrls.writePktSize::2                    0                       # Write request sizes (log2)
system.mem_ctrls.writePktSize::3                    0                       # Write request sizes (log2)
system.mem_ctrls.writePktSize::4                    0                       # Write request sizes (log2)
system.mem_ctrls.writePktSize::5                    0                       # Write request sizes (log2)
system.mem_ctrls.writePktSize::6                    0                       # Write request sizes (log2)
system.mem_ctrls.rdQLenPdf::0                    3843                       # What read queue length does an incoming req see
system.mem_ctrls.rdQLenPdf::1                    2789                       # What read queue length does an incoming req see
system.mem_ctrls.rdQLenPdf::2                     256                       # What read queue length does an incoming req see
system.mem_ctrls.rdQLenPdf::3                      67                       # What read queue length does an incoming req see
system.mem_ctrls.rdQLenPdf::4                      21                       # What read queue length does an incoming req see
system.mem_ctrls.rdQLenPdf::5                      13                       # What read queue length does an incoming req see
system.mem_ctrls.rdQLenPdf::6                       9                       # What read queue length does an incoming req see
system.mem_ctrls.rdQLenPdf::7                       4                       # What read queue length does an incoming req see
system.mem_ctrls.rdQLenPdf::8                       0                       # What read queue length does an incoming req see
system.mem_ctrls.rdQLenPdf::9                       0                       # What read queue length does an incoming req see
system.mem_ctrls.rdQLenPdf::10                      0                       # What read queue length does an incoming req see
system.mem_ctrls.rdQLenPdf::11                      0                       # What read queue length does an incoming req see
system.mem_ctrls.rdQLenPdf::12                      0                       # What read queue length does an incoming req see
system.mem_ctrls.rdQLenPdf::13                      0                       # What read queue length does an incoming req see
system.mem_ctrls.rdQLenPdf::14                      0                       # What read queue length does an incoming req see
system.mem_ctrls.rdQLenPdf::15                      0                       # What read queue length does an incoming req see
system.mem_ctrls.rdQLenPdf::16                      0                       # What read queue length does an incoming req see
system.mem_ctrls.rdQLenPdf::17                      0                       # What read queue length does an incoming req see
system.mem_ctrls.rdQLenPdf::18                      0                       # What read queue length does an incoming req see
system.mem_ctrls.rdQLenPdf::19                      0                       # What read queue length does an incoming req see
system.mem_ctrls.rdQLenPdf::20                      0                       # What read queue length does an incoming req see
system.mem_ctrls.rdQLenPdf::21                      0                       # What read queue length does an incoming req see
system.mem_ctrls.rdQLenPdf::22                      0                       # What read queue length does an incoming req see
system.mem_ctrls.rdQLenPdf::23                      0                       # What read queue length does an incoming req see
system.mem_ctrls.rdQLenPdf::24                      0                       # What read queue length does an incoming req see
system.mem_ctrls.rdQLenPdf::25                      0                       # What read queue length does an incoming req see
system.mem_ctrls.rdQLenPdf::26                      0                       # What read queue length does an incoming req see
system.mem_ctrls.rdQLenPdf::27                      0                       # What read queue length does an incoming req see
system.mem_ctrls.rdQLenPdf::28                      0                       # What read queue length does an incoming req see
system.mem_ctrls.rdQLenPdf::29                      0                       # What read queue length does an incoming req see
system.mem_ctrls.rdQLenPdf::30                      0                       # What read queue length does an incoming req see
system.mem_ctrls.rdQLenPdf::31                      0                       # What read queue length does an incoming req see
system.mem_ctrls.wrQLenPdf::0                       0                       # What write queue length does an incoming req see
system.mem_ctrls.wrQLenPdf::1                       0                       # What write queue length does an incoming req see
system.mem_ctrls.wrQLenPdf::2                       0                       # What write queue length does an incoming req see
system.mem_ctrls.wrQLenPdf::3                       0                       # What write queue length does an incoming req see
system.mem_ctrls.wrQLenPdf::4                       0                       # What write queue length does an incoming req see
system.mem_ctrls.wrQLenPdf::5                       0                       # What write queue length does an incoming req see
system.mem_ctrls.wrQLenPdf::6                       0                       # What write queue length does an incoming req see
system.mem_ctrls.wrQLenPdf::7                       0                       # What write queue length does an incoming req see
system.mem_ctrls.wrQLenPdf::8                       0                       # What write queue length does an incoming req see
system.mem_ctrls.wrQLenPdf::9                       0                       # What write queue length does an incoming req see
system.mem_ctrls.wrQLenPdf::10                      0                       # What write queue length does an incoming req see
system.mem_ctrls.wrQLenPdf::11                      0                       # What write queue length does an incoming req see
system.mem_ctrls.wrQLenPdf::12                      0                       # What write queue length does an incoming req see
system.mem_ctrls.wrQLenPdf::13                      0                       # What write queue length does an incoming req see
system.mem_ctrls.wrQLenPdf::14                      0                       # What write queue length does an incoming req see
system.mem_ctrls.wrQLenPdf::15                      0                       # What write queue length does an incoming req see
system.mem_ctrls.wrQLenPdf::16                      0                       # What write queue length does an incoming req see
system.mem_ctrls.wrQLenPdf::17                      0                       # What write queue length does an incoming req see
system.mem_ctrls.wrQLenPdf::18                      0                       # What write queue length does an incoming req see
system.mem_ctrls.wrQLenPdf::19                      0                       # What write queue length does an incoming req see
system.mem_ctrls.wrQLenPdf::20                      0                       # What write queue length does an incoming req see
system.mem_ctrls.wrQLenPdf::21                      0                       # What write queue length does an incoming req see
system.mem_ctrls.wrQLenPdf::22                      0                       # What write queue length does an incoming req see
system.mem_ctrls.wrQLenPdf::23                      0                       # What write queue length does an incoming req see
system.mem_ctrls.wrQLenPdf::24                      0                       # What write queue length does an incoming req see
system.mem_ctrls.wrQLenPdf::25                      0                       # What write queue length does an incoming req see
system.mem_ctrls.wrQLenPdf::26                      0                       # What write queue length does an incoming req see
system.mem_ctrls.wrQLenPdf::27                      0                       # What write queue length does an incoming req see
system.mem_ctrls.wrQLenPdf::28                      0                       # What write queue length does an incoming req see
system.mem_ctrls.wrQLenPdf::29                      0                       # What write queue length does an incoming req see
system.mem_ctrls.wrQLenPdf::30                      0                       # What write queue length does an incoming req see
system.mem_ctrls.wrQLenPdf::31                      0                       # What write queue length does an incoming req see
system.mem_ctrls.wrQLenPdf::32                      0                       # What write queue length does an incoming req see
system.mem_ctrls.wrQLenPdf::33                      0                       # What write queue length does an incoming req see
system.mem_ctrls.wrQLenPdf::34                      0                       # What write queue length does an incoming req see
system.mem_ctrls.wrQLenPdf::35                      0                       # What write queue length does an incoming req see
system.mem_ctrls.wrQLenPdf::36                      0                       # What write queue length does an incoming req see
system.mem_ctrls.wrQLenPdf::37                      0                       # What write queue length does an incoming req see
system.mem_ctrls.wrQLenPdf::38                      0                       # What write queue length does an incoming req see
system.mem_ctrls.wrQLenPdf::39                      0                       # What write queue length does an incoming req see
system.mem_ctrls.wrQLenPdf::40                      0                       # What write queue length does an incoming req see
system.mem_ctrls.wrQLenPdf::41                      0                       # What write queue length does an incoming req see
system.mem_ctrls.wrQLenPdf::42                      0                       # What write queue length does an incoming req see
system.mem_ctrls.wrQLenPdf::43                      0                       # What write queue length does an incoming req see
system.mem_ctrls.wrQLenPdf::44                      0                       # What write queue length does an incoming req see
system.mem_ctrls.wrQLenPdf::45                      0                       # What write queue length does an incoming req see
system.mem_ctrls.wrQLenPdf::46                      0                       # What write queue length does an incoming req see
system.mem_ctrls.wrQLenPdf::47                      0                       # What write queue length does an incoming req see
system.mem_ctrls.wrQLenPdf::48                      0                       # What write queue length does an incoming req see
system.mem_ctrls.wrQLenPdf::49                      0                       # What write queue length does an incoming req see
system.mem_ctrls.wrQLenPdf::50                      0                       # What write queue length does an incoming req see
system.mem_ctrls.wrQLenPdf::51                      0                       # What write queue length does an incoming req see
system.mem_ctrls.wrQLenPdf::52                      0                       # What write queue length does an incoming req see
system.mem_ctrls.wrQLenPdf::53                      0                       # What write queue length does an incoming req see
system.mem_ctrls.wrQLenPdf::54                      0                       # What write queue length does an incoming req see
system.mem_ctrls.wrQLenPdf::55                      0                       # What write queue length does an incoming req see
system.mem_ctrls.wrQLenPdf::56                      0                       # What write queue length does an incoming req see
system.mem_ctrls.wrQLenPdf::57                      0                       # What write queue length does an incoming req see
system.mem_ctrls.wrQLenPdf::58                      0                       # What write queue length does an incoming req see
system.mem_ctrls.wrQLenPdf::59                      0                       # What write queue length does an incoming req see
system.mem_ctrls.wrQLenPdf::60                      0                       # What write queue length does an incoming req see
system.mem_ctrls.wrQLenPdf::61                      0                       # What write queue length does an incoming req see
system.mem_ctrls.wrQLenPdf::62                      0                       # What write queue length does an incoming req see
system.mem_ctrls.wrQLenPdf::63                      0                       # What write queue length does an incoming req see
system.mem_ctrls.bytesPerActivate::samples         1897                       # Bytes accessed per row activation
system.mem_ctrls.bytesPerActivate::mean    235.352662                       # Bytes accessed per row activation
system.mem_ctrls.bytesPerActivate::gmean   131.443177                       # Bytes accessed per row activation
system.mem_ctrls.bytesPerActivate::stdev   323.833777                       # Bytes accessed per row activation
system.mem_ctrls.bytesPerActivate::0-127          848     44.70%     44.70% # Bytes accessed per row activation
system.mem_ctrls.bytesPerActivate::128-255          712     37.53%     82.24% # Bytes accessed per row activation
system.mem_ctrls.bytesPerActivate::256-383           29      1.53%     83.76% # Bytes accessed per row activation
system.mem_ctrls.bytesPerActivate::384-511           14      0.74%     84.50% # Bytes accessed per row activation
system.mem_ctrls.bytesPerActivate::512-639           14      0.74%     85.24% # Bytes accessed per row activation
system.mem_ctrls.bytesPerActivate::640-767           13      0.69%     85.93% # Bytes accessed per row activation
system.mem_ctrls.bytesPerActivate::768-895            8      0.42%     86.35% # Bytes accessed per row activation
system.mem_ctrls.bytesPerActivate::896-1023            9      0.47%     86.82% # Bytes accessed per row activation
system.mem_ctrls.bytesPerActivate::1024-1151          250     13.18%    100.00% # Bytes accessed per row activation
system.mem_ctrls.bytesPerActivate::total         1897                       # Bytes accessed per row activation
system.mem_ctrls.totQLat                     62073500                       # Total ticks spent queuing
system.mem_ctrls.totMemAccLat               193361000                       # Total ticks spent from burst creation until serviced by the DRAM
system.mem_ctrls.totBusLat                   35010000                       # Total ticks spent in databus transfers
system.mem_ctrls.avgQLat                      8865.11                       # Average queueing delay per DRAM burst
system.mem_ctrls.avgBusLat                    5000.00                       # Average bus latency per DRAM burst
system.mem_ctrls.avgMemAccLat                27615.11                       # Average memory access latency per DRAM burst
system.mem_ctrls.avgRdBW                       280.14                       # Average DRAM read bandwidth in MiByte/s
system.mem_ctrls.avgWrBW                         0.00                       # Average achieved write bandwidth in MiByte/s
system.mem_ctrls.avgRdBWSys                    280.14                       # Average system read bandwidth in MiByte/s
system.mem_ctrls.avgWrBWSys                      0.00                       # Average system write bandwidth in MiByte/s
system.mem_ctrls.peakBW                      12800.00                       # Theoretical peak bandwidth in MiByte/s
system.mem_ctrls.busUtil                         2.19                       # Data bus utilization in percentage
system.mem_ctrls.busUtilRead                     2.19                       # Data bus utilization in percentage for reads
system.mem_ctrls.busUtilWrite                    0.00                       # Data bus utilization in percentage for writes
system.mem_ctrls.avgRdQLen                       1.64                       # Average read queue length when enqueuing
system.mem_ctrls.avgWrQLen                       0.00                       # Average write queue length when enqueuing
system.mem_ctrls.readRowHits                     5095                       # Number of row buffer hits during reads
system.mem_ctrls.writeRowHits                       0                       # Number of row buffer hits during writes
system.mem_ctrls.readRowHitRate                 72.76                       # Row buffer hit rate for reads
system.mem_ctrls.writeRowHitRate                  nan                       # Row buffer hit rate for writes
system.mem_ctrls.avgGap                     228450.01                       # Average gap between requests
system.mem_ctrls.pageHitRate                    72.76                       # Row buffer hit rate, read and write combined
system.mem_ctrls_0.actEnergy                  7824600                       # Energy for activate commands per rank (pJ)
system.mem_ctrls_0.preEnergy                  4269375                       # Energy for precharge commands per rank (pJ)
system.mem_ctrls_0.readEnergy                29234400                       # Energy for read commands per rank (pJ)
system.mem_ctrls_0.writeEnergy                      0                       # Energy for write commands per rank (pJ)
system.mem_ctrls_0.refreshEnergy            104254800                       # Energy for refresh commands per rank (pJ)
system.mem_ctrls_0.actBackEnergy            744716970                       # Energy for active background per rank (pJ)
system.mem_ctrls_0.preBackEnergy            304604250                       # Energy for precharge background per rank (pJ)
system.mem_ctrls_0.totalEnergy             1194904395                       # Total energy per rank (pJ)
system.mem_ctrls_0.averagePower            748.480030                       # Core power per rank (mW)
system.mem_ctrls_0.memoryStateTime::IDLE    501263250                       # Time in different power states
system.mem_ctrls_0.memoryStateTime::REF      53300000                       # Time in different power states
system.mem_ctrls_0.memoryStateTime::PRE_PDN            0                       # Time in different power states
system.mem_ctrls_0.memoryStateTime::ACT    1041891750                       # Time in different power states
system.mem_ctrls_0.memoryStateTime::ACT_PDN            0                       # Time in different power states
system.mem_ctrls_1.actEnergy                  6463800                       # Energy for activate commands per rank (pJ)
system.mem_ctrls_1.preEnergy                  3526875                       # Energy for precharge commands per rank (pJ)
system.mem_ctrls_1.readEnergy                24983400                       # Energy for read commands per rank (pJ)
system.mem_ctrls_1.writeEnergy                      0                       # Energy for write commands per rank (pJ)
system.mem_ctrls_1.refreshEnergy            104254800                       # Energy for refresh commands per rank (pJ)
system.mem_ctrls_1.actBackEnergy            713233305                       # Energy for active background per rank (pJ)
system.mem_ctrls_1.preBackEnergy            332213250                       # Energy for precharge background per rank (pJ)
system.mem_ctrls_1.totalEnergy             1184675430                       # Total energy per rank (pJ)
system.mem_ctrls_1.averagePower            742.079067                       # Core power per rank (mW)
system.mem_ctrls_1.memoryStateTime::IDLE    548601500                       # Time in different power states
system.mem_ctrls_1.memoryStateTime::REF      53300000                       # Time in different power states
system.mem_ctrls_1.memoryStateTime::PRE_PDN            0                       # Time in different power states
system.mem_ctrls_1.memoryStateTime::ACT     995685000                       # Time in different power states
system.mem_ctrls_1.memoryStateTime::ACT_PDN            0                       # Time in different power states
system.cpu0.branchPred.lookups                 312735                       # Number of BP lookups
system.cpu0.branchPred.condPredicted           310442                       # Number of conditional branches predicted
system.cpu0.branchPred.condIncorrect             3274                       # Number of conditional branches incorrect
system.cpu0.branchPred.BTBLookups              310402                       # Number of BTB lookups
system.cpu0.branchPred.BTBHits                 307206                       # Number of BTB hits
system.cpu0.branchPred.BTBCorrect                   0                       # Number of correct BTB predictions (this stat may not work properly.
system.cpu0.branchPred.BTBHitPct            98.970367                       # BTB Hit Percentage
system.cpu0.branchPred.usedRAS                    864                       # Number of times the RAS was used to get a target.
system.cpu0.branchPred.RASInCorrect                11                       # Number of incorrect RAS predictions.
system.cpu_voltage_domain.voltage                   1                       # Voltage in Volts
system.cpu_clk_domain.clock                       500                       # Clock period in ticks
system.cpu0.dstage2_mmu.stage2_tlb.walker.walks            0                       # Table walker walks requested
system.cpu0.dstage2_mmu.stage2_tlb.walker.walkRequestOrigin_Requested::Data            0                       # Table walker requests started/completed, data/inst
system.cpu0.dstage2_mmu.stage2_tlb.walker.walkRequestOrigin_Requested::Inst            0                       # Table walker requests started/completed, data/inst
system.cpu0.dstage2_mmu.stage2_tlb.walker.walkRequestOrigin_Requested::total            0                       # Table walker requests started/completed, data/inst
system.cpu0.dstage2_mmu.stage2_tlb.walker.walkRequestOrigin_Completed::Data            0                       # Table walker requests started/completed, data/inst
system.cpu0.dstage2_mmu.stage2_tlb.walker.walkRequestOrigin_Completed::Inst            0                       # Table walker requests started/completed, data/inst
system.cpu0.dstage2_mmu.stage2_tlb.walker.walkRequestOrigin_Completed::total            0                       # Table walker requests started/completed, data/inst
system.cpu0.dstage2_mmu.stage2_tlb.walker.walkRequestOrigin::total            0                       # Table walker requests started/completed, data/inst
system.cpu0.dstage2_mmu.stage2_tlb.inst_hits            0                       # ITB inst hits
system.cpu0.dstage2_mmu.stage2_tlb.inst_misses            0                       # ITB inst misses
system.cpu0.dstage2_mmu.stage2_tlb.read_hits            0                       # DTB read hits
system.cpu0.dstage2_mmu.stage2_tlb.read_misses            0                       # DTB read misses
system.cpu0.dstage2_mmu.stage2_tlb.write_hits            0                       # DTB write hits
system.cpu0.dstage2_mmu.stage2_tlb.write_misses            0                       # DTB write misses
system.cpu0.dstage2_mmu.stage2_tlb.flush_tlb            0                       # Number of times complete TLB was flushed
system.cpu0.dstage2_mmu.stage2_tlb.flush_tlb_mva            0                       # Number of times TLB was flushed by MVA
system.cpu0.dstage2_mmu.stage2_tlb.flush_tlb_mva_asid            0                       # Number of times TLB was flushed by MVA & ASID
system.cpu0.dstage2_mmu.stage2_tlb.flush_tlb_asid            0                       # Number of times TLB was flushed by ASID
system.cpu0.dstage2_mmu.stage2_tlb.flush_entries            0                       # Number of entries that have been flushed from TLB
system.cpu0.dstage2_mmu.stage2_tlb.align_faults            0                       # Number of TLB faults due to alignment restrictions
system.cpu0.dstage2_mmu.stage2_tlb.prefetch_faults            0                       # Number of TLB faults due to prefetch
system.cpu0.dstage2_mmu.stage2_tlb.domain_faults            0                       # Number of TLB faults due to domain restrictions
system.cpu0.dstage2_mmu.stage2_tlb.perms_faults            0                       # Number of TLB faults due to permissions restrictions
system.cpu0.dstage2_mmu.stage2_tlb.read_accesses            0                       # DTB read accesses
system.cpu0.dstage2_mmu.stage2_tlb.write_accesses            0                       # DTB write accesses
system.cpu0.dstage2_mmu.stage2_tlb.inst_accesses            0                       # ITB inst accesses
system.cpu0.dstage2_mmu.stage2_tlb.hits             0                       # DTB hits
system.cpu0.dstage2_mmu.stage2_tlb.misses            0                       # DTB misses
system.cpu0.dstage2_mmu.stage2_tlb.accesses            0                       # DTB accesses
system.cpu0.dtb.walker.walks                        0                       # Table walker walks requested
system.cpu0.dtb.walker.walkRequestOrigin_Requested::Data            0                       # Table walker requests started/completed, data/inst
system.cpu0.dtb.walker.walkRequestOrigin_Requested::Inst            0                       # Table walker requests started/completed, data/inst
system.cpu0.dtb.walker.walkRequestOrigin_Requested::total            0                       # Table walker requests started/completed, data/inst
system.cpu0.dtb.walker.walkRequestOrigin_Completed::Data            0                       # Table walker requests started/completed, data/inst
system.cpu0.dtb.walker.walkRequestOrigin_Completed::Inst            0                       # Table walker requests started/completed, data/inst
system.cpu0.dtb.walker.walkRequestOrigin_Completed::total            0                       # Table walker requests started/completed, data/inst
system.cpu0.dtb.walker.walkRequestOrigin::total            0                       # Table walker requests started/completed, data/inst
system.cpu0.dtb.inst_hits                           0                       # ITB inst hits
system.cpu0.dtb.inst_misses                         0                       # ITB inst misses
system.cpu0.dtb.read_hits                           0                       # DTB read hits
system.cpu0.dtb.read_misses                         0                       # DTB read misses
system.cpu0.dtb.write_hits                          0                       # DTB write hits
system.cpu0.dtb.write_misses                        0                       # DTB write misses
system.cpu0.dtb.flush_tlb                           0                       # Number of times complete TLB was flushed
system.cpu0.dtb.flush_tlb_mva                       0                       # Number of times TLB was flushed by MVA
system.cpu0.dtb.flush_tlb_mva_asid                  0                       # Number of times TLB was flushed by MVA & ASID
system.cpu0.dtb.flush_tlb_asid                      0                       # Number of times TLB was flushed by ASID
system.cpu0.dtb.flush_entries                       0                       # Number of entries that have been flushed from TLB
system.cpu0.dtb.align_faults                        0                       # Number of TLB faults due to alignment restrictions
system.cpu0.dtb.prefetch_faults                     0                       # Number of TLB faults due to prefetch
system.cpu0.dtb.domain_faults                       0                       # Number of TLB faults due to domain restrictions
system.cpu0.dtb.perms_faults                        0                       # Number of TLB faults due to permissions restrictions
system.cpu0.dtb.read_accesses                       0                       # DTB read accesses
system.cpu0.dtb.write_accesses                      0                       # DTB write accesses
system.cpu0.dtb.inst_accesses                       0                       # ITB inst accesses
system.cpu0.dtb.hits                                0                       # DTB hits
system.cpu0.dtb.misses                              0                       # DTB misses
system.cpu0.dtb.accesses                            0                       # DTB accesses
system.cpu0.istage2_mmu.stage2_tlb.walker.walks            0                       # Table walker walks requested
system.cpu0.istage2_mmu.stage2_tlb.walker.walkRequestOrigin_Requested::Data            0                       # Table walker requests started/completed, data/inst
system.cpu0.istage2_mmu.stage2_tlb.walker.walkRequestOrigin_Requested::Inst            0                       # Table walker requests started/completed, data/inst
system.cpu0.istage2_mmu.stage2_tlb.walker.walkRequestOrigin_Requested::total            0                       # Table walker requests started/completed, data/inst
system.cpu0.istage2_mmu.stage2_tlb.walker.walkRequestOrigin_Completed::Data            0                       # Table walker requests started/completed, data/inst
system.cpu0.istage2_mmu.stage2_tlb.walker.walkRequestOrigin_Completed::Inst            0                       # Table walker requests started/completed, data/inst
system.cpu0.istage2_mmu.stage2_tlb.walker.walkRequestOrigin_Completed::total            0                       # Table walker requests started/completed, data/inst
system.cpu0.istage2_mmu.stage2_tlb.walker.walkRequestOrigin::total            0                       # Table walker requests started/completed, data/inst
system.cpu0.istage2_mmu.stage2_tlb.inst_hits            0                       # ITB inst hits
system.cpu0.istage2_mmu.stage2_tlb.inst_misses            0                       # ITB inst misses
system.cpu0.istage2_mmu.stage2_tlb.read_hits            0                       # DTB read hits
system.cpu0.istage2_mmu.stage2_tlb.read_misses            0                       # DTB read misses
system.cpu0.istage2_mmu.stage2_tlb.write_hits            0                       # DTB write hits
system.cpu0.istage2_mmu.stage2_tlb.write_misses            0                       # DTB write misses
system.cpu0.istage2_mmu.stage2_tlb.flush_tlb            0                       # Number of times complete TLB was flushed
system.cpu0.istage2_mmu.stage2_tlb.flush_tlb_mva            0                       # Number of times TLB was flushed by MVA
system.cpu0.istage2_mmu.stage2_tlb.flush_tlb_mva_asid            0                       # Number of times TLB was flushed by MVA & ASID
system.cpu0.istage2_mmu.stage2_tlb.flush_tlb_asid            0                       # Number of times TLB was flushed by ASID
system.cpu0.istage2_mmu.stage2_tlb.flush_entries            0                       # Number of entries that have been flushed from TLB
system.cpu0.istage2_mmu.stage2_tlb.align_faults            0                       # Number of TLB faults due to alignment restrictions
system.cpu0.istage2_mmu.stage2_tlb.prefetch_faults            0                       # Number of TLB faults due to prefetch
system.cpu0.istage2_mmu.stage2_tlb.domain_faults            0                       # Number of TLB faults due to domain restrictions
system.cpu0.istage2_mmu.stage2_tlb.perms_faults            0                       # Number of TLB faults due to permissions restrictions
system.cpu0.istage2_mmu.stage2_tlb.read_accesses            0                       # DTB read accesses
system.cpu0.istage2_mmu.stage2_tlb.write_accesses            0                       # DTB write accesses
system.cpu0.istage2_mmu.stage2_tlb.inst_accesses            0                       # ITB inst accesses
system.cpu0.istage2_mmu.stage2_tlb.hits             0                       # DTB hits
system.cpu0.istage2_mmu.stage2_tlb.misses            0                       # DTB misses
system.cpu0.istage2_mmu.stage2_tlb.accesses            0                       # DTB accesses
system.cpu0.itb.walker.walks                        0                       # Table walker walks requested
system.cpu0.itb.walker.walkRequestOrigin_Requested::Data            0                       # Table walker requests started/completed, data/inst
system.cpu0.itb.walker.walkRequestOrigin_Requested::Inst            0                       # Table walker requests started/completed, data/inst
system.cpu0.itb.walker.walkRequestOrigin_Requested::total            0                       # Table walker requests started/completed, data/inst
system.cpu0.itb.walker.walkRequestOrigin_Completed::Data            0                       # Table walker requests started/completed, data/inst
system.cpu0.itb.walker.walkRequestOrigin_Completed::Inst            0                       # Table walker requests started/completed, data/inst
system.cpu0.itb.walker.walkRequestOrigin_Completed::total            0                       # Table walker requests started/completed, data/inst
system.cpu0.itb.walker.walkRequestOrigin::total            0                       # Table walker requests started/completed, data/inst
system.cpu0.itb.inst_hits                           0                       # ITB inst hits
system.cpu0.itb.inst_misses                         0                       # ITB inst misses
system.cpu0.itb.read_hits                           0                       # DTB read hits
system.cpu0.itb.read_misses                         0                       # DTB read misses
system.cpu0.itb.write_hits                          0                       # DTB write hits
system.cpu0.itb.write_misses                        0                       # DTB write misses
system.cpu0.itb.flush_tlb                           0                       # Number of times complete TLB was flushed
system.cpu0.itb.flush_tlb_mva                       0                       # Number of times TLB was flushed by MVA
system.cpu0.itb.flush_tlb_mva_asid                  0                       # Number of times TLB was flushed by MVA & ASID
system.cpu0.itb.flush_tlb_asid                      0                       # Number of times TLB was flushed by ASID
system.cpu0.itb.flush_entries                       0                       # Number of entries that have been flushed from TLB
system.cpu0.itb.align_faults                        0                       # Number of TLB faults due to alignment restrictions
system.cpu0.itb.prefetch_faults                     0                       # Number of TLB faults due to prefetch
system.cpu0.itb.domain_faults                       0                       # Number of TLB faults due to domain restrictions
system.cpu0.itb.perms_faults                        0                       # Number of TLB faults due to permissions restrictions
system.cpu0.itb.read_accesses                       0                       # DTB read accesses
system.cpu0.itb.write_accesses                      0                       # DTB write accesses
system.cpu0.itb.inst_accesses                       0                       # ITB inst accesses
system.cpu0.itb.hits                                0                       # DTB hits
system.cpu0.itb.misses                              0                       # DTB misses
system.cpu0.itb.accesses                            0                       # DTB accesses
system.cpu0.workload.num_syscalls                3839                       # Number of system calls
system.cpu0.numCycles                         3199294                       # number of cpu cycles simulated
system.cpu0.numWorkItemsStarted                     0                       # number of work items this cpu started
system.cpu0.numWorkItemsCompleted                   0                       # number of work items this cpu completed
system.cpu0.fetch.icacheStallCycles            594543                       # Number of cycles fetch is stalled on an Icache miss
system.cpu0.fetch.Insts                       4442820                       # Number of instructions fetch has processed
system.cpu0.fetch.Branches                     312735                       # Number of branches that fetch encountered
system.cpu0.fetch.predictedBranches            308070                       # Number of branches that fetch has predicted taken
system.cpu0.fetch.Cycles                      2559543                       # Number of cycles fetch has run and was not squashing or blocked
system.cpu0.fetch.SquashCycles                   6713                       # Number of cycles fetch has spent squashing
system.cpu0.fetch.MiscStallCycles                   1                       # Number of cycles fetch has spent waiting on interrupts, or bad addresses, or out of MSHRs
system.cpu0.fetch.PendingTrapStallCycles            5                       # Number of stall cycles due to pending traps
system.cpu0.fetch.CacheLines                   580296                       # Number of cache lines fetched
system.cpu0.fetch.IcacheSquashes                  998                       # Number of outstanding Icache misses that were squashed
system.cpu0.fetch.rateDist::samples           3157448                       # Number of instructions fetched each cycle (Total)
system.cpu0.fetch.rateDist::mean             1.410120                       # Number of instructions fetched each cycle (Total)
system.cpu0.fetch.rateDist::stdev            2.633992                       # Number of instructions fetched each cycle (Total)
system.cpu0.fetch.rateDist::underflows              0      0.00%      0.00% # Number of instructions fetched each cycle (Total)
system.cpu0.fetch.rateDist::0                 2314774     73.31%     73.31% # Number of instructions fetched each cycle (Total)
system.cpu0.fetch.rateDist::1                   68625      2.17%     75.48% # Number of instructions fetched each cycle (Total)
system.cpu0.fetch.rateDist::2                   87854      2.78%     78.27% # Number of instructions fetched each cycle (Total)
system.cpu0.fetch.rateDist::3                   69815      2.21%     80.48% # Number of instructions fetched each cycle (Total)
system.cpu0.fetch.rateDist::4                   91090      2.88%     83.36% # Number of instructions fetched each cycle (Total)
system.cpu0.fetch.rateDist::5                   69969      2.22%     85.58% # Number of instructions fetched each cycle (Total)
system.cpu0.fetch.rateDist::6                   80738      2.56%     88.14% # Number of instructions fetched each cycle (Total)
system.cpu0.fetch.rateDist::7                  196696      6.23%     94.37% # Number of instructions fetched each cycle (Total)
system.cpu0.fetch.rateDist::8                  177887      5.63%    100.00% # Number of instructions fetched each cycle (Total)
system.cpu0.fetch.rateDist::overflows               0      0.00%    100.00% # Number of instructions fetched each cycle (Total)
system.cpu0.fetch.rateDist::min_value               0                       # Number of instructions fetched each cycle (Total)
system.cpu0.fetch.rateDist::max_value               8                       # Number of instructions fetched each cycle (Total)
system.cpu0.fetch.rateDist::total             3157448                       # Number of instructions fetched each cycle (Total)
system.cpu0.fetch.branchRate                 0.097751                       # Number of branch fetches per cycle
system.cpu0.fetch.rate                       1.388688                       # Number of inst fetches per cycle
system.cpu0.decode.IdleCycles                  202835                       # Number of cycles decode is idle
system.cpu0.decode.BlockedCycles              2388790                       # Number of cycles decode is blocked
system.cpu0.decode.RunCycles                   129732                       # Number of cycles decode is running
system.cpu0.decode.UnblockCycles               433045                       # Number of cycles decode is unblocking
system.cpu0.decode.SquashCycles                  3046                       # Number of cycles decode is squashing
system.cpu0.decode.BranchResolved                 950                       # Number of times decode resolved a branch
system.cpu0.decode.BranchMispred                  323                       # Number of times decode detected a branch misprediction
system.cpu0.decode.DecodedInsts               4363362                       # Number of instructions handled by decode
system.cpu0.decode.SquashedInsts                 1139                       # Number of squashed instructions handled by decode
system.cpu0.rename.SquashCycles                  3046                       # Number of cycles rename is squashing
system.cpu0.rename.IdleCycles                  338177                       # Number of cycles rename is idle
system.cpu0.rename.BlockCycles                 720123                       # Number of cycles rename is blocking
system.cpu0.rename.serializeStallCycles         11929                       # count of cycles rename stalled for serializing inst
system.cpu0.rename.RunCycles                   415951                       # Number of cycles rename is running
system.cpu0.rename.UnblockCycles              1668222                       # Number of cycles rename is unblocking
system.cpu0.rename.RenamedInsts               4348649                       # Number of instructions processed by rename
system.cpu0.rename.ROBFullEvents                    9                       # Number of times rename has blocked due to ROB full
system.cpu0.rename.IQFullEvents               1109390                       # Number of times rename has blocked due to IQ full
system.cpu0.rename.LQFullEvents                387774                       # Number of times rename has blocked due to LQ full
system.cpu0.rename.SQFullEvents                254375                       # Number of times rename has blocked due to SQ full
system.cpu0.rename.RenamedOperands            5630397                       # Number of destination operands rename has renamed
system.cpu0.rename.RenameLookups             21397580                       # Number of register rename lookups that rename has made
system.cpu0.rename.int_rename_lookups         7197307                       # Number of integer rename lookups
system.cpu0.rename.fp_rename_lookups               22                       # Number of floating rename lookups
system.cpu0.rename.CommittedMaps              5586885                       # Number of HB maps that are committed
system.cpu0.rename.UndoneMaps                   43512                       # Number of HB maps that are undone due to squashing
system.cpu0.rename.serializingInsts               149                       # count of serializing insts renamed
system.cpu0.rename.tempSerializingInsts           152                       # count of temporary serializing insts renamed
system.cpu0.rename.skidInsts                  2363597                       # count of insts added to the skid buffer
system.cpu0.memDep0.insertedLoads             1068337                       # Number of loads inserted to the mem dependence unit.
system.cpu0.memDep0.insertedStores              77367                       # Number of stores inserted to the mem dependence unit.
system.cpu0.memDep0.conflictingLoads             4710                       # Number of conflicting loads.
system.cpu0.memDep0.conflictingStores             760                       # Number of conflicting stores.
system.cpu0.iq.iqInstsAdded                   4335903                       # Number of instructions added to the IQ (excludes non-spec)
system.cpu0.iq.iqNonSpecInstsAdded                291                       # Number of non-speculative instructions added to the IQ
system.cpu0.iq.iqInstsIssued                  7330403                       # Number of instructions issued
system.cpu0.iq.iqSquashedInstsIssued             3293                       # Number of squashed instructions issued
system.cpu0.iq.iqSquashedInstsExamined          25823                       # Number of squashed instructions iterated over during squash; mainly for profiling
system.cpu0.iq.iqSquashedOperandsExamined        71206                       # Number of squashed operands that are examined and possibly removed from graph
system.cpu0.iq.iqSquashedNonSpecRemoved            87                       # Number of squashed non-spec instructions that were removed
system.cpu0.iq.issued_per_cycle::samples      3157448                       # Number of insts issued each cycle
system.cpu0.iq.issued_per_cycle::mean        2.321623                       # Number of insts issued each cycle
system.cpu0.iq.issued_per_cycle::stdev       2.162618                       # Number of insts issued each cycle
system.cpu0.iq.issued_per_cycle::underflows            0      0.00%      0.00% # Number of insts issued each cycle
system.cpu0.iq.issued_per_cycle::0             907403     28.74%     28.74% # Number of insts issued each cycle
system.cpu0.iq.issued_per_cycle::1             588268     18.63%     47.37% # Number of insts issued each cycle
system.cpu0.iq.issued_per_cycle::2             364914     11.56%     58.93% # Number of insts issued each cycle
system.cpu0.iq.issued_per_cycle::3             231205      7.32%     66.25% # Number of insts issued each cycle
system.cpu0.iq.issued_per_cycle::4             412816     13.07%     79.32% # Number of insts issued each cycle
system.cpu0.iq.issued_per_cycle::5             372227     11.79%     91.11% # Number of insts issued each cycle
system.cpu0.iq.issued_per_cycle::6             183045      5.80%     96.91% # Number of insts issued each cycle
system.cpu0.iq.issued_per_cycle::7              72537      2.30%     99.21% # Number of insts issued each cycle
system.cpu0.iq.issued_per_cycle::8              25033      0.79%    100.00% # Number of insts issued each cycle
system.cpu0.iq.issued_per_cycle::overflows            0      0.00%    100.00% # Number of insts issued each cycle
system.cpu0.iq.issued_per_cycle::min_value            0                       # Number of insts issued each cycle
system.cpu0.iq.issued_per_cycle::max_value            8                       # Number of insts issued each cycle
system.cpu0.iq.issued_per_cycle::total        3157448                       # Number of insts issued each cycle
system.cpu0.iq.fu_full::No_OpClass                  0      0.00%      0.00% # attempts to use FU when none available
system.cpu0.iq.fu_full::IntAlu                    179      0.03%      0.03% # attempts to use FU when none available
system.cpu0.iq.fu_full::IntMult                  2867      0.41%      0.44% # attempts to use FU when none available
system.cpu0.iq.fu_full::IntDiv                      0      0.00%      0.44% # attempts to use FU when none available
system.cpu0.iq.fu_full::FloatAdd                    0      0.00%      0.44% # attempts to use FU when none available
system.cpu0.iq.fu_full::FloatCmp                    0      0.00%      0.44% # attempts to use FU when none available
system.cpu0.iq.fu_full::FloatCvt                    0      0.00%      0.44% # attempts to use FU when none available
system.cpu0.iq.fu_full::FloatMult                   0      0.00%      0.44% # attempts to use FU when none available
system.cpu0.iq.fu_full::FloatDiv                    0      0.00%      0.44% # attempts to use FU when none available
system.cpu0.iq.fu_full::FloatSqrt                   0      0.00%      0.44% # attempts to use FU when none available
system.cpu0.iq.fu_full::SimdAdd                     0      0.00%      0.44% # attempts to use FU when none available
system.cpu0.iq.fu_full::SimdAddAcc                  0      0.00%      0.44% # attempts to use FU when none available
system.cpu0.iq.fu_full::SimdAlu                     0      0.00%      0.44% # attempts to use FU when none available
system.cpu0.iq.fu_full::SimdCmp                     0      0.00%      0.44% # attempts to use FU when none available
system.cpu0.iq.fu_full::SimdCvt                     0      0.00%      0.44% # attempts to use FU when none available
system.cpu0.iq.fu_full::SimdMisc                    0      0.00%      0.44% # attempts to use FU when none available
system.cpu0.iq.fu_full::SimdMult                    0      0.00%      0.44% # attempts to use FU when none available
system.cpu0.iq.fu_full::SimdMultAcc                 0      0.00%      0.44% # attempts to use FU when none available
system.cpu0.iq.fu_full::SimdShift                   0      0.00%      0.44% # attempts to use FU when none available
system.cpu0.iq.fu_full::SimdShiftAcc                0      0.00%      0.44% # attempts to use FU when none available
system.cpu0.iq.fu_full::SimdSqrt                    0      0.00%      0.44% # attempts to use FU when none available
system.cpu0.iq.fu_full::SimdFloatAdd                0      0.00%      0.44% # attempts to use FU when none available
system.cpu0.iq.fu_full::SimdFloatAlu                0      0.00%      0.44% # attempts to use FU when none available
system.cpu0.iq.fu_full::SimdFloatCmp                0      0.00%      0.44% # attempts to use FU when none available
system.cpu0.iq.fu_full::SimdFloatCvt                0      0.00%      0.44% # attempts to use FU when none available
system.cpu0.iq.fu_full::SimdFloatDiv                0      0.00%      0.44% # attempts to use FU when none available
system.cpu0.iq.fu_full::SimdFloatMisc               0      0.00%      0.44% # attempts to use FU when none available
system.cpu0.iq.fu_full::SimdFloatMult               0      0.00%      0.44% # attempts to use FU when none available
system.cpu0.iq.fu_full::SimdFloatMultAcc            0      0.00%      0.44% # attempts to use FU when none available
system.cpu0.iq.fu_full::SimdFloatSqrt               0      0.00%      0.44% # attempts to use FU when none available
system.cpu0.iq.fu_full::MemRead                693610     99.53%     99.97% # attempts to use FU when none available
system.cpu0.iq.fu_full::MemWrite                  226      0.03%    100.00% # attempts to use FU when none available
system.cpu0.iq.fu_full::IprAccess                   0      0.00%    100.00% # attempts to use FU when none available
system.cpu0.iq.fu_full::InstPrefetch                0      0.00%    100.00% # attempts to use FU when none available
system.cpu0.iq.FU_type_0::No_OpClass                0      0.00%      0.00% # Type of FU issued
system.cpu0.iq.FU_type_0::IntAlu              2364725     32.26%     32.26% # Type of FU issued
system.cpu0.iq.FU_type_0::IntMult              819614     11.18%     43.44% # Type of FU issued
system.cpu0.iq.FU_type_0::IntDiv                    0      0.00%     43.44% # Type of FU issued
system.cpu0.iq.FU_type_0::FloatAdd                  0      0.00%     43.44% # Type of FU issued
system.cpu0.iq.FU_type_0::FloatCmp                  0      0.00%     43.44% # Type of FU issued
system.cpu0.iq.FU_type_0::FloatCvt                  0      0.00%     43.44% # Type of FU issued
system.cpu0.iq.FU_type_0::FloatMult                 0      0.00%     43.44% # Type of FU issued
system.cpu0.iq.FU_type_0::FloatDiv                  0      0.00%     43.44% # Type of FU issued
system.cpu0.iq.FU_type_0::FloatSqrt                 0      0.00%     43.44% # Type of FU issued
system.cpu0.iq.FU_type_0::SimdAdd                   0      0.00%     43.44% # Type of FU issued
system.cpu0.iq.FU_type_0::SimdAddAcc                0      0.00%     43.44% # Type of FU issued
system.cpu0.iq.FU_type_0::SimdAlu                   0      0.00%     43.44% # Type of FU issued
system.cpu0.iq.FU_type_0::SimdCmp                   0      0.00%     43.44% # Type of FU issued
system.cpu0.iq.FU_type_0::SimdCvt                   0      0.00%     43.44% # Type of FU issued
system.cpu0.iq.FU_type_0::SimdMisc                  0      0.00%     43.44% # Type of FU issued
system.cpu0.iq.FU_type_0::SimdMult                  0      0.00%     43.44% # Type of FU issued
system.cpu0.iq.FU_type_0::SimdMultAcc               0      0.00%     43.44% # Type of FU issued
system.cpu0.iq.FU_type_0::SimdShift                 0      0.00%     43.44% # Type of FU issued
system.cpu0.iq.FU_type_0::SimdShiftAcc              0      0.00%     43.44% # Type of FU issued
system.cpu0.iq.FU_type_0::SimdSqrt                  0      0.00%     43.44% # Type of FU issued
system.cpu0.iq.FU_type_0::SimdFloatAdd              0      0.00%     43.44% # Type of FU issued
system.cpu0.iq.FU_type_0::SimdFloatAlu              0      0.00%     43.44% # Type of FU issued
system.cpu0.iq.FU_type_0::SimdFloatCmp              0      0.00%     43.44% # Type of FU issued
system.cpu0.iq.FU_type_0::SimdFloatCvt              0      0.00%     43.44% # Type of FU issued
system.cpu0.iq.FU_type_0::SimdFloatDiv              0      0.00%     43.44% # Type of FU issued
system.cpu0.iq.FU_type_0::SimdFloatMisc             3      0.00%     43.44% # Type of FU issued
system.cpu0.iq.FU_type_0::SimdFloatMult             0      0.00%     43.44% # Type of FU issued
system.cpu0.iq.FU_type_0::SimdFloatMultAcc            0      0.00%     43.44% # Type of FU issued
system.cpu0.iq.FU_type_0::SimdFloatSqrt             0      0.00%     43.44% # Type of FU issued
system.cpu0.iq.FU_type_0::MemRead             4069683     55.52%     98.96% # Type of FU issued
system.cpu0.iq.FU_type_0::MemWrite              76378      1.04%    100.00% # Type of FU issued
system.cpu0.iq.FU_type_0::IprAccess                 0      0.00%    100.00% # Type of FU issued
system.cpu0.iq.FU_type_0::InstPrefetch              0      0.00%    100.00% # Type of FU issued
system.cpu0.iq.FU_type_0::total               7330403                       # Type of FU issued
system.cpu0.iq.rate                          2.291256                       # Inst issue rate
system.cpu0.iq.fu_busy_cnt                     696882                       # FU busy when requested
system.cpu0.iq.fu_busy_rate                  0.095067                       # FU busy rate (busy events/executed inst)
system.cpu0.iq.int_inst_queue_reads          18518368                       # Number of integer instruction queue reads
system.cpu0.iq.int_inst_queue_writes          4362066                       # Number of integer instruction queue writes
system.cpu0.iq.int_inst_queue_wakeup_accesses      4319329                       # Number of integer instruction queue wakeup accesses
system.cpu0.iq.fp_inst_queue_reads                 61                       # Number of floating instruction queue reads
system.cpu0.iq.fp_inst_queue_writes                28                       # Number of floating instruction queue writes
system.cpu0.iq.fp_inst_queue_wakeup_accesses           28                       # Number of floating instruction queue wakeup accesses
system.cpu0.iq.int_alu_accesses               8027252                       # Number of integer alu accesses
system.cpu0.iq.fp_alu_accesses                     33                       # Number of floating point alu accesses
system.cpu0.iew.lsq.thread0.forwLoads             128                       # Number of loads that had data forwarded from stores
system.cpu0.iew.lsq.thread0.invAddrLoads            0                       # Number of loads ignored due to an invalid address
system.cpu0.iew.lsq.thread0.squashedLoads         8047                       # Number of loads squashed
system.cpu0.iew.lsq.thread0.ignoredResponses            3                       # Number of memory responses ignored because the instruction is squashed
system.cpu0.iew.lsq.thread0.memOrderViolation           79                       # Number of memory ordering violations
system.cpu0.iew.lsq.thread0.squashedStores         1616                       # Number of stores squashed
system.cpu0.iew.lsq.thread0.invAddrSwpfs            0                       # Number of software prefetches ignored due to an invalid address
system.cpu0.iew.lsq.thread0.blockedLoads            0                       # Number of blocked loads due to partial load-store forwarding
system.cpu0.iew.lsq.thread0.rescheduledLoads          131                       # Number of loads that were rescheduled
system.cpu0.iew.lsq.thread0.cacheBlocked      3009510                       # Number of times an access to memory failed due to the cache being blocked
system.cpu0.iew.iewIdleCycles                       0                       # Number of cycles IEW is idle
system.cpu0.iew.iewSquashCycles                  3046                       # Number of cycles IEW is squashing
system.cpu0.iew.iewBlockCycles                 324281                       # Number of cycles IEW is blocking
system.cpu0.iew.iewUnblockCycles                53240                       # Number of cycles IEW is unblocking
system.cpu0.iew.iewDispatchedInsts            4336201                       # Number of instructions dispatched to IQ
system.cpu0.iew.iewDispSquashedInsts             3724                       # Number of squashed instructions skipped by dispatch
system.cpu0.iew.iewDispLoadInsts              1068337                       # Number of dispatched load instructions
system.cpu0.iew.iewDispStoreInsts               77367                       # Number of dispatched store instructions
system.cpu0.iew.iewDispNonSpecInsts               139                       # Number of dispatched non-speculative instructions
system.cpu0.iew.iewIQFullEvents                 17427                       # Number of times the IQ has become full, causing a stall
system.cpu0.iew.iewLSQFullEvents                19271                       # Number of times the LSQ has become full, causing a stall
system.cpu0.iew.memOrderViolationEvents            79                       # Number of memory order violations
system.cpu0.iew.predictedTakenIncorrect          2444                       # Number of branches that were predicted taken incorrectly
system.cpu0.iew.predictedNotTakenIncorrect          596                       # Number of branches that were predicted not taken incorrectly
system.cpu0.iew.branchMispredicts                3040                       # Number of branch mispredicts detected at execute
system.cpu0.iew.iewExecutedInsts              7326214                       # Number of executed instructions
system.cpu0.iew.iewExecLoadInsts              4067981                       # Number of load instructions executed
system.cpu0.iew.iewExecSquashedInsts             4189                       # Number of squashed instructions skipped in execute
system.cpu0.iew.exec_swp                            0                       # number of swp insts executed
system.cpu0.iew.exec_nop                            7                       # number of nop insts executed
system.cpu0.iew.exec_refs                     4144202                       # number of memory reference insts executed
system.cpu0.iew.exec_branches                  301888                       # Number of branches executed
system.cpu0.iew.exec_stores                     76221                       # Number of stores executed
system.cpu0.iew.exec_rate                    2.289947                       # Inst execution rate
system.cpu0.iew.wb_sent                       4319653                       # cumulative count of insts sent to commit
system.cpu0.iew.wb_count                      4319357                       # cumulative count of insts written-back
system.cpu0.iew.wb_producers                  3183178                       # num instructions producing a value
system.cpu0.iew.wb_consumers                  4472311                       # num instructions consuming a value
system.cpu0.iew.wb_penalized                        0                       # number of instrctions required to write to 'other' IQ
system.cpu0.iew.wb_rate                      1.350097                       # insts written-back per cycle
system.cpu0.iew.wb_fanout                    0.711752                       # average fanout of values written-back
system.cpu0.iew.wb_penalized_rate                   0                       # fraction of instructions written-back that wrote to 'other' IQ
system.cpu0.commit.commitSquashedInsts          25868                       # The number of squashed insts skipped by commit
system.cpu0.commit.commitNonSpecStalls            204                       # The number of times commit has been forced to stall to communicate backwards
system.cpu0.commit.branchMispredicts             2964                       # The number of times a branch was mispredicted
system.cpu0.commit.committed_per_cycle::samples      3152606                       # Number of insts commited each cycle
system.cpu0.commit.committed_per_cycle::mean     1.367241                       # Number of insts commited each cycle
system.cpu0.commit.committed_per_cycle::stdev     2.324302                       # Number of insts commited each cycle
system.cpu0.commit.committed_per_cycle::underflows            0      0.00%      0.00% # Number of insts commited each cycle
system.cpu0.commit.committed_per_cycle::0      1792260     56.85%     56.85% # Number of insts commited each cycle
system.cpu0.commit.committed_per_cycle::1       510811     16.20%     73.05% # Number of insts commited each cycle
system.cpu0.commit.committed_per_cycle::2       293761      9.32%     82.37% # Number of insts commited each cycle
system.cpu0.commit.committed_per_cycle::3       174440      5.53%     87.90% # Number of insts commited each cycle
system.cpu0.commit.committed_per_cycle::4        23289      0.74%     88.64% # Number of insts commited each cycle
system.cpu0.commit.committed_per_cycle::5        61326      1.95%     90.59% # Number of insts commited each cycle
system.cpu0.commit.committed_per_cycle::6        22793      0.72%     91.31% # Number of insts commited each cycle
system.cpu0.commit.committed_per_cycle::7        39234      1.24%     92.56% # Number of insts commited each cycle
system.cpu0.commit.committed_per_cycle::8       234692      7.44%    100.00% # Number of insts commited each cycle
system.cpu0.commit.committed_per_cycle::overflows            0      0.00%    100.00% # Number of insts commited each cycle
system.cpu0.commit.committed_per_cycle::min_value            0                       # Number of insts commited each cycle
system.cpu0.commit.committed_per_cycle::max_value            8                       # Number of insts commited each cycle
system.cpu0.commit.committed_per_cycle::total      3152606                       # Number of insts commited each cycle
system.cpu0.commit.committedInsts             4304298                       # Number of instructions committed
system.cpu0.commit.committedOps               4310371                       # Number of ops (including micro ops) committed
system.cpu0.commit.swp_count                        0                       # Number of s/w prefetches committed
system.cpu0.commit.refs                       1136041                       # Number of memory references committed
system.cpu0.commit.loads                      1060290                       # Number of loads committed
system.cpu0.commit.membars                        115                       # Number of memory barriers committed
system.cpu0.commit.branches                    300906                       # Number of branches committed
[...]
system.l2.ReadExReq_avg_mshr_miss_latency::cpu5.data 73440.384615                       # average ReadExReq mshr miss latency
system.l2.ReadExReq_avg_mshr_miss_latency::cpu6.data 75679.807692                       # average ReadExReq mshr miss latency
system.l2.ReadExReq_avg_mshr_miss_latency::cpu7.data 72146.551724                       # average ReadExReq mshr miss latency
system.l2.ReadExReq_avg_mshr_miss_latency::total 64816.292826                       # average ReadExReq mshr miss latency
system.l2.demand_avg_mshr_miss_latency::cpu0.inst 67035.573123                       # average overall mshr miss latency
system.l2.demand_avg_mshr_miss_latency::cpu0.data 61446.019256                       # average overall mshr miss latency
system.l2.demand_avg_mshr_miss_latency::cpu1.inst 93787.037037                       # average overall mshr miss latency
system.l2.demand_avg_mshr_miss_latency::cpu1.data 75349.056604                       # average overall mshr miss latency
system.l2.demand_avg_mshr_miss_latency::cpu2.data 73385.849057                       # average overall mshr miss latency
system.l2.demand_avg_mshr_miss_latency::cpu3.inst        56250                       # average overall mshr miss latency
system.l2.demand_avg_mshr_miss_latency::cpu3.data 73942.015209                       # average overall mshr miss latency
system.l2.demand_avg_mshr_miss_latency::cpu4.inst        66000                       # average overall mshr miss latency
system.l2.demand_avg_mshr_miss_latency::cpu4.data 73078.544061                       # average overall mshr miss latency
system.l2.demand_avg_mshr_miss_latency::cpu5.inst        72950                       # average overall mshr miss latency
system.l2.demand_avg_mshr_miss_latency::cpu5.data 73319.656489                       # average overall mshr miss latency
system.l2.demand_avg_mshr_miss_latency::cpu6.data 75616.920152                       # average overall mshr miss latency
system.l2.demand_avg_mshr_miss_latency::cpu7.inst        63375                       # average overall mshr miss latency
system.l2.demand_avg_mshr_miss_latency::cpu7.data 72146.551724                       # average overall mshr miss latency
system.l2.demand_avg_mshr_miss_latency::total 65238.685180                       # average overall mshr miss latency
system.l2.overall_avg_mshr_miss_latency::cpu0.inst 67035.573123                       # average overall mshr miss latency
system.l2.overall_avg_mshr_miss_latency::cpu0.data 61446.019256                       # average overall mshr miss latency
system.l2.overall_avg_mshr_miss_latency::cpu1.inst 93787.037037                       # average overall mshr miss latency
system.l2.overall_avg_mshr_miss_latency::cpu1.data 75349.056604                       # average overall mshr miss latency
system.l2.overall_avg_mshr_miss_latency::cpu2.data 73385.849057                       # average overall mshr miss latency
system.l2.overall_avg_mshr_miss_latency::cpu3.inst        56250                       # average overall mshr miss latency
system.l2.overall_avg_mshr_miss_latency::cpu3.data 73942.015209                       # average overall mshr miss latency
system.l2.overall_avg_mshr_miss_latency::cpu4.inst        66000                       # average overall mshr miss latency
system.l2.overall_avg_mshr_miss_latency::cpu4.data 73078.544061                       # average overall mshr miss latency
system.l2.overall_avg_mshr_miss_latency::cpu5.inst        72950                       # average overall mshr miss latency
system.l2.overall_avg_mshr_miss_latency::cpu5.data 73319.656489                       # average overall mshr miss latency
system.l2.overall_avg_mshr_miss_latency::cpu6.data 75616.920152                       # average overall mshr miss latency
system.l2.overall_avg_mshr_miss_latency::cpu7.inst        63375                       # average overall mshr miss latency
system.l2.overall_avg_mshr_miss_latency::cpu7.data 72146.551724                       # average overall mshr miss latency
system.l2.overall_avg_mshr_miss_latency::total 65238.685180                       # average overall mshr miss latency
system.l2.no_allocate_misses                        0                       # Number of misses that were no-allocate
system.membus.trans_dist::ReadReq                 675                       # Transaction distribution
system.membus.trans_dist::ReadResp                674                       # Transaction distribution
system.membus.trans_dist::UpgradeReq               13                       # Transaction distribution
system.membus.trans_dist::SCUpgradeReq             21                       # Transaction distribution
system.membus.trans_dist::UpgradeResp               6                       # Transaction distribution
system.membus.trans_dist::ReadExReq              6327                       # Transaction distribution
system.membus.trans_dist::ReadExResp             6327                       # Transaction distribution
system.membus.pkt_count_system.l2.mem_side::system.mem_ctrls.port        14043                       # Packet count per connected master and slave (bytes)
system.membus.pkt_count::total                  14043                       # Packet count per connected master and slave (bytes)
system.membus.pkt_size_system.l2.mem_side::system.mem_ctrls.port       448064                       # Cumulative packet size per connected master and slave (bytes)
system.membus.pkt_size::total                  448064                       # Cumulative packet size per connected master and slave (bytes)
system.membus.snoops                               28                       # Total snoops (count)
system.membus.snoop_fanout::samples              7036                       # Request fanout histogram
system.membus.snoop_fanout::mean                    0                       # Request fanout histogram
system.membus.snoop_fanout::stdev                   0                       # Request fanout histogram
system.membus.snoop_fanout::underflows              0      0.00%      0.00% # Request fanout histogram
system.membus.snoop_fanout::0                    7036    100.00%    100.00% # Request fanout histogram
system.membus.snoop_fanout::1                       0      0.00%    100.00% # Request fanout histogram
system.membus.snoop_fanout::overflows               0      0.00%    100.00% # Request fanout histogram
system.membus.snoop_fanout::min_value               0                       # Request fanout histogram
system.membus.snoop_fanout::max_value               0                       # Request fanout histogram
system.membus.snoop_fanout::total                7036                       # Request fanout histogram
system.membus.reqLayer0.occupancy             7797500                       # Layer occupancy (ticks)
system.membus.reqLayer0.utilization               0.5                       # Layer utilization (%)
system.membus.respLayer1.occupancy           37148244                       # Layer occupancy (ticks)
system.membus.respLayer1.utilization              2.3                       # Layer utilization (%)
system.tol2bus.trans_dist::ReadReq            2121465                       # Transaction distribution
system.tol2bus.trans_dist::ReadResp           2121463                       # Transaction distribution
system.tol2bus.trans_dist::Writeback           198603                       # Transaction distribution
system.tol2bus.trans_dist::UpgradeReq              13                       # Transaction distribution
system.tol2bus.trans_dist::SCUpgradeReq            22                       # Transaction distribution
system.tol2bus.trans_dist::UpgradeResp             35                       # Transaction distribution
system.tol2bus.trans_dist::SCUpgradeFailReq            4                       # Transaction distribution
system.tol2bus.trans_dist::UpgradeFailResp            4                       # Transaction distribution
system.tol2bus.trans_dist::ReadExReq            20695                       # Transaction distribution
system.tol2bus.trans_dist::ReadExResp           20695                       # Transaction distribution
system.tol2bus.pkt_count_system.cpu0.icache.mem_side::system.l2.cpu_side         1232                       # Packet count per connected master and slave (bytes)
system.tol2bus.pkt_count_system.cpu0.dcache.mem_side::system.l2.cpu_side       491995                       # Packet count per connected master and slave (bytes)
system.tol2bus.pkt_count_system.cpu1.icache.mem_side::system.l2.cpu_side          110                       # Packet count per connected master and slave (bytes)
system.tol2bus.pkt_count_system.cpu1.dcache.mem_side::system.l2.cpu_side       426270                       # Packet count per connected master and slave (bytes)
system.tol2bus.pkt_count_system.cpu2.icache.mem_side::system.l2.cpu_side          112                       # Packet count per connected master and slave (bytes)
system.tol2bus.pkt_count_system.cpu2.dcache.mem_side::system.l2.cpu_side       426104                       # Packet count per connected master and slave (bytes)
system.tol2bus.pkt_count_system.cpu3.icache.mem_side::system.l2.cpu_side          110                       # Packet count per connected master and slave (bytes)
system.tol2bus.pkt_count_system.cpu3.dcache.mem_side::system.l2.cpu_side       426429                       # Packet count per connected master and slave (bytes)
system.tol2bus.pkt_count_system.cpu4.icache.mem_side::system.l2.cpu_side          112                       # Packet count per connected master and slave (bytes)
system.tol2bus.pkt_count_system.cpu4.dcache.mem_side::system.l2.cpu_side       426121                       # Packet count per connected master and slave (bytes)
system.tol2bus.pkt_count_system.cpu5.icache.mem_side::system.l2.cpu_side          118                       # Packet count per connected master and slave (bytes)
system.tol2bus.pkt_count_system.cpu5.dcache.mem_side::system.l2.cpu_side       426199                       # Packet count per connected master and slave (bytes)
system.tol2bus.pkt_count_system.cpu6.icache.mem_side::system.l2.cpu_side          108                       # Packet count per connected master and slave (bytes)
system.tol2bus.pkt_count_system.cpu6.dcache.mem_side::system.l2.cpu_side       426193                       # Packet count per connected master and slave (bytes)
system.tol2bus.pkt_count_system.cpu7.icache.mem_side::system.l2.cpu_side          106                       # Packet count per connected master and slave (bytes)
system.tol2bus.pkt_count_system.cpu7.dcache.mem_side::system.l2.cpu_side       426350                       # Packet count per connected master and slave (bytes)
system.tol2bus.pkt_count::total               3477669                       # Packet count per connected master and slave (bytes)
system.tol2bus.pkt_size_system.cpu0.icache.mem_side::system.l2.cpu_side        39360                       # Cumulative packet size per connected master and slave (bytes)
system.tol2bus.pkt_size_system.cpu0.dcache.mem_side::system.l2.cpu_side     14100224                       # Cumulative packet size per connected master and slave (bytes)
system.tol2bus.pkt_size_system.cpu1.icache.mem_side::system.l2.cpu_side         3520                       # Cumulative packet size per connected master and slave (bytes)
system.tol2bus.pkt_size_system.cpu1.dcache.mem_side::system.l2.cpu_side     10188800                       # Cumulative packet size per connected master and slave (bytes)
system.tol2bus.pkt_size_system.cpu2.icache.mem_side::system.l2.cpu_side         3584                       # Cumulative packet size per connected master and slave (bytes)
system.tol2bus.pkt_size_system.cpu2.dcache.mem_side::system.l2.cpu_side     10176128                       # Cumulative packet size per connected master and slave (bytes)
system.tol2bus.pkt_size_system.cpu3.icache.mem_side::system.l2.cpu_side         3520                       # Cumulative packet size per connected master and slave (bytes)
system.tol2bus.pkt_size_system.cpu3.dcache.mem_side::system.l2.cpu_side     10198656                       # Cumulative packet size per connected master and slave (bytes)
system.tol2bus.pkt_size_system.cpu4.icache.mem_side::system.l2.cpu_side         3584                       # Cumulative packet size per connected master and slave (bytes)
system.tol2bus.pkt_size_system.cpu4.dcache.mem_side::system.l2.cpu_side     10179008                       # Cumulative packet size per connected master and slave (bytes)
system.tol2bus.pkt_size_system.cpu5.icache.mem_side::system.l2.cpu_side         3776                       # Cumulative packet size per connected master and slave (bytes)
system.tol2bus.pkt_size_system.cpu5.dcache.mem_side::system.l2.cpu_side     10184192                       # Cumulative packet size per connected master and slave (bytes)
system.tol2bus.pkt_size_system.cpu6.icache.mem_side::system.l2.cpu_side         3456                       # Cumulative packet size per connected master and slave (bytes)
system.tol2bus.pkt_size_system.cpu6.dcache.mem_side::system.l2.cpu_side     10182656                       # Cumulative packet size per connected master and slave (bytes)
system.tol2bus.pkt_size_system.cpu7.icache.mem_side::system.l2.cpu_side         3392                       # Cumulative packet size per connected master and slave (bytes)
system.tol2bus.pkt_size_system.cpu7.dcache.mem_side::system.l2.cpu_side     10195776                       # Cumulative packet size per connected master and slave (bytes)
system.tol2bus.pkt_size::total               85469632                       # Cumulative packet size per connected master and slave (bytes)
system.tol2bus.snoops                         1005330                       # Total snoops (count)
system.tol2bus.snoop_fanout::samples          2340802                       # Request fanout histogram
system.tol2bus.snoop_fanout::mean                  15                       # Request fanout histogram
system.tol2bus.snoop_fanout::stdev                  0                       # Request fanout histogram
system.tol2bus.snoop_fanout::underflows             0      0.00%      0.00% # Request fanout histogram
system.tol2bus.snoop_fanout::0                      0      0.00%      0.00% # Request fanout histogram
system.tol2bus.snoop_fanout::1                      0      0.00%      0.00% # Request fanout histogram
system.tol2bus.snoop_fanout::2                      0      0.00%      0.00% # Request fanout histogram
system.tol2bus.snoop_fanout::3                      0      0.00%      0.00% # Request fanout histogram
system.tol2bus.snoop_fanout::4                      0      0.00%      0.00% # Request fanout histogram
system.tol2bus.snoop_fanout::5                      0      0.00%      0.00% # Request fanout histogram
system.tol2bus.snoop_fanout::6                      0      0.00%      0.00% # Request fanout histogram
system.tol2bus.snoop_fanout::7                      0      0.00%      0.00% # Request fanout histogram
system.tol2bus.snoop_fanout::8                      0      0.00%      0.00% # Request fanout histogram
system.tol2bus.snoop_fanout::9                      0      0.00%      0.00% # Request fanout histogram
system.tol2bus.snoop_fanout::10                     0      0.00%      0.00% # Request fanout histogram
system.tol2bus.snoop_fanout::11                     0      0.00%      0.00% # Request fanout histogram
system.tol2bus.snoop_fanout::12                     0      0.00%      0.00% # Request fanout histogram
system.tol2bus.snoop_fanout::13                     0      0.00%      0.00% # Request fanout histogram
system.tol2bus.snoop_fanout::14                     0      0.00%      0.00% # Request fanout histogram
system.tol2bus.snoop_fanout::15               2340802    100.00%    100.00% # Request fanout histogram
system.tol2bus.snoop_fanout::16                     0      0.00%    100.00% # Request fanout histogram
system.tol2bus.snoop_fanout::overflows              0      0.00%    100.00% # Request fanout histogram
system.tol2bus.snoop_fanout::min_value             15                       # Request fanout histogram
system.tol2bus.snoop_fanout::max_value             15                       # Request fanout histogram
system.tol2bus.snoop_fanout::total            2340802                       # Request fanout histogram
system.tol2bus.reqLayer0.occupancy         1369004998                       # Layer occupancy (ticks)
system.tol2bus.reqLayer0.utilization             85.6                       # Layer utilization (%)
system.tol2bus.respLayer0.occupancy           1020238                       # Layer occupancy (ticks)
system.tol2bus.respLayer0.utilization             0.1                       # Layer utilization (%)
system.tol2bus.respLayer1.occupancy         412782528                       # Layer occupancy (ticks)
system.tol2bus.respLayer1.utilization            25.8                       # Layer utilization (%)
system.tol2bus.respLayer4.occupancy             87729                       # Layer occupancy (ticks)
system.tol2bus.respLayer4.utilization             0.0                       # Layer utilization (%)
system.tol2bus.respLayer5.occupancy         404820562                       # Layer occupancy (ticks)
system.tol2bus.respLayer5.utilization            25.3                       # Layer utilization (%)
system.tol2bus.respLayer8.occupancy             94455                       # Layer occupancy (ticks)
system.tol2bus.respLayer8.utilization             0.0                       # Layer utilization (%)
system.tol2bus.respLayer9.occupancy         404922498                       # Layer occupancy (ticks)
system.tol2bus.respLayer9.utilization            25.3                       # Layer utilization (%)
system.tol2bus.respLayer12.occupancy            90716                       # Layer occupancy (ticks)
system.tol2bus.respLayer12.utilization            0.0                       # Layer utilization (%)
system.tol2bus.respLayer13.occupancy        404786943                       # Layer occupancy (ticks)
system.tol2bus.respLayer13.utilization           25.3                       # Layer utilization (%)
system.tol2bus.respLayer16.occupancy            88962                       # Layer occupancy (ticks)
system.tol2bus.respLayer16.utilization            0.0                       # Layer utilization (%)
system.tol2bus.respLayer17.occupancy        404829839                       # Layer occupancy (ticks)
system.tol2bus.respLayer17.utilization           25.3                       # Layer utilization (%)
system.tol2bus.respLayer20.occupancy            92720                       # Layer occupancy (ticks)
system.tol2bus.respLayer20.utilization            0.0                       # Layer utilization (%)
system.tol2bus.respLayer21.occupancy        404763901                       # Layer occupancy (ticks)
system.tol2bus.respLayer21.utilization           25.3                       # Layer utilization (%)
system.tol2bus.respLayer24.occupancy            83974                       # Layer occupancy (ticks)
system.tol2bus.respLayer24.utilization            0.0                       # Layer utilization (%)
system.tol2bus.respLayer25.occupancy        404875823                       # Layer occupancy (ticks)
system.tol2bus.respLayer25.utilization           25.3                       # Layer utilization (%)
system.tol2bus.respLayer28.occupancy            82479                       # Layer occupancy (ticks)
system.tol2bus.respLayer28.utilization            0.0                       # Layer utilization (%)
system.tol2bus.respLayer29.occupancy        404734229                       # Layer occupancy (ticks)
system.tol2bus.respLayer29.utilization           25.3                       # Layer utilization (%)

---------- End Simulation Statistics   ----------
