
---------- Begin Simulation Statistics ----------
sim_seconds                                  0.000052                       # Number of seconds simulated
sim_ticks                                    51556500                       # Number of ticks simulated
final_tick                                   51556500                       # Number of ticks from beginning of simulation (restored from checkpoints and never reset)
sim_freq                                 1000000000000                       # Frequency of simulated ticks
host_inst_rate                                 132179                       # Simulator instruction rate (inst/s)
host_op_rate                                   140308                       # Simulator op (including micro ops) rate (op/s)
host_tick_rate                               69274755                       # Simulator tick rate (ticks/s)
host_mem_usage                                 655652                       # Number of bytes of host memory used
host_seconds                                     0.74                       # Real time elapsed on the host
sim_insts                                       98367                       # Number of instructions simulated
sim_ops                                        104419                       # Number of ops (including micro ops) simulated
system.voltage_domain.voltage                       1                       # Voltage in Volts
system.clk_domain.clock                          1000                       # Clock period in ticks
system.mem_ctrls.bytes_read::cpu0.inst          33088                       # Number of bytes read from this memory
system.mem_ctrls.bytes_read::cpu0.data          10560                       # Number of bytes read from this memory
system.mem_ctrls.bytes_read::cpu1.inst           1216                       # Number of bytes read from this memory
system.mem_ctrls.bytes_read::cpu1.data            256                       # Number of bytes read from this memory
system.mem_ctrls.bytes_read::l2.prefetcher        12416                       # Number of bytes read from this memory
system.mem_ctrls.bytes_read::total              57536                       # Number of bytes read from this memory
system.mem_ctrls.bytes_inst_read::cpu0.inst        33088                       # Number of instructions bytes read from this memory
system.mem_ctrls.bytes_inst_read::cpu1.inst         1216                       # Number of instructions bytes read from this memory
system.mem_ctrls.bytes_inst_read::total         34304                       # Number of instructions bytes read from this memory
system.mem_ctrls.num_reads::cpu0.inst             517                       # Number of read requests responded to by this memory
system.mem_ctrls.num_reads::cpu0.data             165                       # Number of read requests responded to by this memory
system.mem_ctrls.num_reads::cpu1.inst              19                       # Number of read requests responded to by this memory
system.mem_ctrls.num_reads::cpu1.data               4                       # Number of read requests responded to by this memory
system.mem_ctrls.num_reads::l2.prefetcher          194                       # Number of read requests responded to by this memory
system.mem_ctrls.num_reads::total                 899                       # Number of read requests responded to by this memory
system.mem_ctrls.bw_read::cpu0.inst         641781347                       # Total read bandwidth from this memory (bytes/s)
system.mem_ctrls.bw_read::cpu0.data         204823834                       # Total read bandwidth from this memory (bytes/s)
system.mem_ctrls.bw_read::cpu1.inst          23585775                       # Total read bandwidth from this memory (bytes/s)
system.mem_ctrls.bw_read::cpu1.data           4965426                       # Total read bandwidth from this memory (bytes/s)
system.mem_ctrls.bw_read::l2.prefetcher     240823175                       # Total read bandwidth from this memory (bytes/s)
system.mem_ctrls.bw_read::total            1115979556                       # Total read bandwidth from this memory (bytes/s)
system.mem_ctrls.bw_inst_read::cpu0.inst    641781347                       # Instruction read bandwidth from this memory (bytes/s)
system.mem_ctrls.bw_inst_read::cpu1.inst     23585775                       # Instruction read bandwidth from this memory (bytes/s)
system.mem_ctrls.bw_inst_read::total        665367122                       # Instruction read bandwidth from this memory (bytes/s)
system.mem_ctrls.bw_total::cpu0.inst        641781347                       # Total bandwidth to/from this memory (bytes/s)
system.mem_ctrls.bw_total::cpu0.data        204823834                       # Total bandwidth to/from this memory (bytes/s)
system.mem_ctrls.bw_total::cpu1.inst         23585775                       # Total bandwidth to/from this memory (bytes/s)
system.mem_ctrls.bw_total::cpu1.data          4965426                       # Total bandwidth to/from this memory (bytes/s)
system.mem_ctrls.bw_total::l2.prefetcher    240823175                       # Total bandwidth to/from this memory (bytes/s)
system.mem_ctrls.bw_total::total           1115979556                       # Total bandwidth to/from this memory (bytes/s)
system.mem_ctrls.readReqs                         899                       # Number of read requests accepted
system.mem_ctrls.writeReqs                          0                       # Number of write requests accepted
system.mem_ctrls.readBursts                       899                       # Number of DRAM read bursts, including those serviced by the write queue
system.mem_ctrls.writeBursts                        0                       # Number of DRAM write bursts, including those merged in the write queue
system.mem_ctrls.bytesReadDRAM                  57536                       # Total number of bytes read from DRAM
system.mem_ctrls.bytesReadWrQ                       0                       # Total number of bytes read from write queue
system.mem_ctrls.bytesWritten                       0                       # Total number of bytes written to DRAM
system.mem_ctrls.bytesReadSys                   57536                       # Total read bytes from the system interface side
system.mem_ctrls.bytesWrittenSys                    0                       # Total written bytes from the system interface side
system.mem_ctrls.servicedByWrQ                      0                       # Number of DRAM read bursts serviced by the write queue
system.mem_ctrls.mergedWrBursts                     0                       # Number of DRAM write bursts merged with an existing one
system.mem_ctrls.neitherReadNorWriteReqs            5                       # Number of requests that are neither read nor write
system.mem_ctrls.perBankRdBursts::0               125                       # Per bank write bursts
system.mem_ctrls.perBankRdBursts::1               123                       # Per bank write bursts
system.mem_ctrls.perBankRdBursts::2               133                       # Per bank write bursts
system.mem_ctrls.perBankRdBursts::3               184                       # Per bank write bursts
system.mem_ctrls.perBankRdBursts::4                35                       # Per bank write bursts
system.mem_ctrls.perBankRdBursts::5                20                       # Per bank write bursts
system.mem_ctrls.perBankRdBursts::6                81                       # Per bank write bursts
system.mem_ctrls.perBankRdBursts::7                29                       # Per bank write bursts
system.mem_ctrls.perBankRdBursts::8                16                       # Per bank write bursts
system.mem_ctrls.perBankRdBursts::9                 8                       # Per bank write bursts
system.mem_ctrls.perBankRdBursts::10                0                       # Per bank write bursts
system.mem_ctrls.perBankRdBursts::11               13                       # Per bank write bursts
system.mem_ctrls.perBankRdBursts::12                5                       # Per bank write bursts
system.mem_ctrls.perBankRdBursts::13               34                       # Per bank write bursts
system.mem_ctrls.perBankRdBursts::14               38                       # Per bank write bursts
system.mem_ctrls.perBankRdBursts::15               55                       # Per bank write bursts
system.mem_ctrls.perBankWrBursts::0                 0                       # Per bank write bursts
system.mem_ctrls.perBankWrBursts::1                 0                       # Per bank write bursts
system.mem_ctrls.perBankWrBursts::2                 0                       # Per bank write bursts
system.mem_ctrls.perBankWrBursts::3                 0                       # Per bank write bursts
system.mem_ctrls.perBankWrBursts::4                 0                       # Per bank write bursts
system.mem_ctrls.perBankWrBursts::5                 0                       # Per bank write bursts
system.mem_ctrls.perBankWrBursts::6                 0                       # Per bank write bursts
system.mem_ctrls.perBankWrBursts::7                 0                       # Per bank write bursts
system.mem_ctrls.perBankWrBursts::8                 0                       # Per bank write bursts
system.mem_ctrls.perBankWrBursts::9                 0                       # Per bank write bursts
system.mem_ctrls.perBankWrBursts::10                0                       # Per bank write bursts
system.mem_ctrls.perBankWrBursts::11                0                       # Per bank write bursts
system.mem_ctrls.perBankWrBursts::12                0                       # Per bank write bursts
system.mem_ctrls.perBankWrBursts::13                0                       # Per bank write bursts
system.mem_ctrls.perBankWrBursts::14                0                       # Per bank write bursts
system.mem_ctrls.perBankWrBursts::15                0                       # Per bank write bursts
system.mem_ctrls.numRdRetry                         0                       # Number of times read queue was full causing retry
system.mem_ctrls.numWrRetry                         0                       # Number of times write queue was full causing retry
system.mem_ctrls.totGap                      51517500                       # Total gap between requests
system.mem_ctrls.readPktSize::0                     0                       # Read request sizes (log2)
system.mem_ctrls.readPktSize::1                     0                       # Read request sizes (log2)
system.mem_ctrls.readPktSize::2                     0                       # Read request sizes (log2)
system.mem_ctrls.readPktSize::3                     0                       # Read request sizes (log2)
system.mem_ctrls.readPktSize::4                     0                       # Read request sizes (log2)
system.mem_ctrls.readPktSize::5                     0                       # Read request sizes (log2)
system.mem_ctrls.readPktSize::6                   899                       # Read request sizes (log2)
system.mem_ctrls.writePktSize::0                    0                       # Write request sizes (log2)
system.mem_ctrls.writePktSize::1                    0                       # Write request sizes (log2)
system.mem_ctrls.writePktSize::2                    0                       # Write request sizes (log2)
system.mem_ctrls.writePktSize::3                    0                       # Write request sizes (log2)
system.mem_ctrls.writePktSize::4                    0                       # Write request sizes (log2)
system.mem_ctrls.writePktSize::5                    0                       # Write request sizes (log2)
system.mem_ctrls.writePktSize::6                    0                       # Write request sizes (log2)
system.mem_ctrls.rdQLenPdf::0                     465                       # What read queue length does an incoming req see
system.mem_ctrls.rdQLenPdf::1                     313                       # What read queue length does an incoming req see
system.mem_ctrls.rdQLenPdf::2                      55                       # What read queue length does an incoming req see
system.mem_ctrls.rdQLenPdf::3                      25                       # What read queue length does an incoming req see
system.mem_ctrls.rdQLenPdf::4                      14                       # What read queue length does an incoming req see
system.mem_ctrls.rdQLenPdf::5                       8                       # What read queue length does an incoming req see
system.mem_ctrls.rdQLenPdf::6                       6                       # What read queue length does an incoming req see
system.mem_ctrls.rdQLenPdf::7                       6                       # What read queue length does an incoming req see
system.mem_ctrls.rdQLenPdf::8                       6                       # What read queue length does an incoming req see
system.mem_ctrls.rdQLenPdf::9                       1                       # What read queue length does an incoming req see
system.mem_ctrls.rdQLenPdf::10                      0                       # What read queue length does an incoming req see
system.mem_ctrls.rdQLenPdf::11                      0                       # What read queue length does an incoming req see
system.mem_ctrls.rdQLenPdf::12                      0                       # What read queue length does an incoming req see
system.mem_ctrls.rdQLenPdf::13                      0                       # What read queue length does an incoming req see
system.mem_ctrls.rdQLenPdf::14                      0                       # What read queue length does an incoming req see
system.mem_ctrls.rdQLenPdf::15                      0                       # What read queue length does an incoming req see
system.mem_ctrls.rdQLenPdf::16                      0                       # What read queue length does an incoming req see
system.mem_ctrls.rdQLenPdf::17                      0                       # What read queue length does an incoming req see
system.mem_ctrls.rdQLenPdf::18                      0                       # What read queue length does an incoming req see
system.mem_ctrls.rdQLenPdf::19                      0                       # What read queue length does an incoming req see
system.mem_ctrls.rdQLenPdf::20                      0                       # What read queue length does an incoming req see
system.mem_ctrls.rdQLenPdf::21                      0                       # What read queue length does an incoming req see
system.mem_ctrls.rdQLenPdf::22                      0                       # What read queue length does an incoming req see
system.mem_ctrls.rdQLenPdf::23                      0                       # What read queue length does an incoming req see
system.mem_ctrls.rdQLenPdf::24                      0                       # What read queue length does an incoming req see
system.mem_ctrls.rdQLenPdf::25                      0                       # What read queue length does an incoming req see
system.mem_ctrls.rdQLenPdf::26                      0                       # What read queue length does an incoming req see
system.mem_ctrls.rdQLenPdf::27                      0                       # What read queue length does an incoming req see
system.mem_ctrls.rdQLenPdf::28                      0                       # What read queue length does an incoming req see
system.mem_ctrls.rdQLenPdf::29                      0                       # What read queue length does an incoming req see
system.mem_ctrls.rdQLenPdf::30                      0                       # What read queue length does an incoming req see
system.mem_ctrls.rdQLenPdf::31                      0                       # What read queue length does an incoming req see
system.mem_ctrls.wrQLenPdf::0                       0                       # What write queue length does an incoming req see
system.mem_ctrls.wrQLenPdf::1                       0                       # What write queue length does an incoming req see
system.mem_ctrls.wrQLenPdf::2                       0                       # What write queue length does an incoming req see
system.mem_ctrls.wrQLenPdf::3                       0                       # What write queue length does an incoming req see
system.mem_ctrls.wrQLenPdf::4                       0                       # What write queue length does an incoming req see
system.mem_ctrls.wrQLenPdf::5                       0                       # What write queue length does an incoming req see
system.mem_ctrls.wrQLenPdf::6                       0                       # What write queue length does an incoming req see
system.mem_ctrls.wrQLenPdf::7                       0                       # What write queue length does an incoming req see
system.mem_ctrls.wrQLenPdf::8                       0                       # What write queue length does an incoming req see
system.mem_ctrls.wrQLenPdf::9                       0                       # What write queue length does an incoming req see
system.mem_ctrls.wrQLenPdf::10                      0                       # What write queue length does an incoming req see
system.mem_ctrls.wrQLenPdf::11                      0                       # What write queue length does an incoming req see
system.mem_ctrls.wrQLenPdf::12                      0                       # What write queue length does an incoming req see
system.mem_ctrls.wrQLenPdf::13                      0                       # What write queue length does an incoming req see
system.mem_ctrls.wrQLenPdf::14                      0                       # What write queue length does an incoming req see
system.mem_ctrls.wrQLenPdf::15                      0                       # What write queue length does an incoming req see
system.mem_ctrls.wrQLenPdf::16                      0                       # What write queue length does an incoming req see
system.mem_ctrls.wrQLenPdf::17                      0                       # What write queue length does an incoming req see
system.mem_ctrls.wrQLenPdf::18                      0                       # What write queue length does an incoming req see
system.mem_ctrls.wrQLenPdf::19                      0                       # What write queue length does an incoming req see
system.mem_ctrls.wrQLenPdf::20                      0                       # What write queue length does an incoming req see
system.mem_ctrls.wrQLenPdf::21                      0                       # What write queue length does an incoming req see
system.mem_ctrls.wrQLenPdf::22                      0                       # What write queue length does an incoming req see
system.mem_ctrls.wrQLenPdf::23                      0                       # What write queue length does an incoming req see
system.mem_ctrls.wrQLenPdf::24                      0                       # What write queue length does an incoming req see
system.mem_ctrls.wrQLenPdf::25                      0                       # What write queue length does an incoming req see
system.mem_ctrls.wrQLenPdf::26                      0                       # What write queue length does an incoming req see
system.mem_ctrls.wrQLenPdf::27                      0                       # What write queue length does an incoming req see
system.mem_ctrls.wrQLenPdf::28                      0                       # What write queue length does an incoming req see
system.mem_ctrls.wrQLenPdf::29                      0                       # What write queue length does an incoming req see
system.mem_ctrls.wrQLenPdf::30                      0                       # What write queue length does an incoming req see
system.mem_ctrls.wrQLenPdf::31                      0                       # What write queue length does an incoming req see
system.mem_ctrls.wrQLenPdf::32                      0                       # What write queue length does an incoming req see
system.mem_ctrls.wrQLenPdf::33                      0                       # What write queue length does an incoming req see
system.mem_ctrls.wrQLenPdf::34                      0                       # What write queue length does an incoming req see
system.mem_ctrls.wrQLenPdf::35                      0                       # What write queue length does an incoming req see
system.mem_ctrls.wrQLenPdf::36                      0                       # What write queue length does an incoming req see
system.mem_ctrls.wrQLenPdf::37                      0                       # What write queue length does an incoming req see
system.mem_ctrls.wrQLenPdf::38                      0                       # What write queue length does an incoming req see
system.mem_ctrls.wrQLenPdf::39                      0                       # What write queue length does an incoming req see
system.mem_ctrls.wrQLenPdf::40                      0                       # What write queue length does an incoming req see
system.mem_ctrls.wrQLenPdf::41                      0                       # What write queue length does an incoming req see
system.mem_ctrls.wrQLenPdf::42                      0                       # What write queue length does an incoming req see
system.mem_ctrls.wrQLenPdf::43                      0                       # What write queue length does an incoming req see
system.mem_ctrls.wrQLenPdf::44                      0                       # What write queue length does an incoming req see
system.mem_ctrls.wrQLenPdf::45                      0                       # What write queue length does an incoming req see
system.mem_ctrls.wrQLenPdf::46                      0                       # What write queue length does an incoming req see
system.mem_ctrls.wrQLenPdf::47                      0                       # What write queue length does an incoming req see
system.mem_ctrls.wrQLenPdf::48                      0                       # What write queue length does an incoming req see
system.mem_ctrls.wrQLenPdf::49                      0                       # What write queue length does an incoming req see
system.mem_ctrls.wrQLenPdf::50                      0                       # What write queue length does an incoming req see
system.mem_ctrls.wrQLenPdf::51                      0                       # What write queue length does an incoming req see
system.mem_ctrls.wrQLenPdf::52                      0                       # What write queue length does an incoming req see
system.mem_ctrls.wrQLenPdf::53                      0                       # What write queue length does an incoming req see
system.mem_ctrls.wrQLenPdf::54                      0                       # What write queue length does an incoming req see
system.mem_ctrls.wrQLenPdf::55                      0                       # What write queue length does an incoming req see
system.mem_ctrls.wrQLenPdf::56                      0                       # What write queue length does an incoming req see
system.mem_ctrls.wrQLenPdf::57                      0                       # What write queue length does an incoming req see
system.mem_ctrls.wrQLenPdf::58                      0                       # What write queue length does an incoming req see
system.mem_ctrls.wrQLenPdf::59                      0                       # What write queue length does an incoming req see
system.mem_ctrls.wrQLenPdf::60                      0                       # What write queue length does an incoming req see
system.mem_ctrls.wrQLenPdf::61                      0                       # What write queue length does an incoming req see
system.mem_ctrls.wrQLenPdf::62                      0                       # What write queue length does an incoming req see
system.mem_ctrls.wrQLenPdf::63                      0                       # What write queue length does an incoming req see
system.mem_ctrls.bytesPerActivate::samples          178                       # Bytes accessed per row activation
system.mem_ctrls.bytesPerActivate::mean    313.168539                       # Bytes accessed per row activation
system.mem_ctrls.bytesPerActivate::gmean   189.971487                       # Bytes accessed per row activation
system.mem_ctrls.bytesPerActivate::stdev   323.308435                       # Bytes accessed per row activation
system.mem_ctrls.bytesPerActivate::0-127           59     33.15%     33.15% # Bytes accessed per row activation
system.mem_ctrls.bytesPerActivate::128-255           47     26.40%     59.55% # Bytes accessed per row activation
system.mem_ctrls.bytesPerActivate::256-383           21     11.80%     71.35% # Bytes accessed per row activation
system.mem_ctrls.bytesPerActivate::384-511            9      5.06%     76.40% # Bytes accessed per row activation
system.mem_ctrls.bytesPerActivate::512-639            9      5.06%     81.46% # Bytes accessed per row activation
system.mem_ctrls.bytesPerActivate::640-767            6      3.37%     84.83% # Bytes accessed per row activation
system.mem_ctrls.bytesPerActivate::768-895            4      2.25%     87.08% # Bytes accessed per row activation
system.mem_ctrls.bytesPerActivate::896-1023            2      1.12%     88.20% # Bytes accessed per row activation
system.mem_ctrls.bytesPerActivate::1024-1151           21     11.80%    100.00% # Bytes accessed per row activation
system.mem_ctrls.bytesPerActivate::total          178                       # Bytes accessed per row activation
system.mem_ctrls.totQLat                      9613281                       # Total ticks spent queuing
system.mem_ctrls.totMemAccLat                26469531                       # Total ticks spent from burst creation until serviced by the DRAM
system.mem_ctrls.totBusLat                    4495000                       # Total ticks spent in databus transfers
system.mem_ctrls.avgQLat                     10693.30                       # Average queueing delay per DRAM burst
system.mem_ctrls.avgBusLat                    5000.00                       # Average bus latency per DRAM burst
system.mem_ctrls.avgMemAccLat                29443.30                       # Average memory access latency per DRAM burst
system.mem_ctrls.avgRdBW                      1115.98                       # Average DRAM read bandwidth in MiByte/s
system.mem_ctrls.avgWrBW                         0.00                       # Average achieved write bandwidth in MiByte/s
system.mem_ctrls.avgRdBWSys                   1115.98                       # Average system read bandwidth in MiByte/s
system.mem_ctrls.avgWrBWSys                      0.00                       # Average system write bandwidth in MiByte/s
system.mem_ctrls.peakBW                      12800.00                       # Theoretical peak bandwidth in MiByte/s
system.mem_ctrls.busUtil                         8.72                       # Data bus utilization in percentage
system.mem_ctrls.busUtilRead                     8.72                       # Data bus utilization in percentage for reads
system.mem_ctrls.busUtilWrite                    0.00                       # Data bus utilization in percentage for writes
system.mem_ctrls.avgRdQLen                       1.55                       # Average read queue length when enqueuing
system.mem_ctrls.avgWrQLen                       0.00                       # Average write queue length when enqueuing
system.mem_ctrls.readRowHits                      712                       # Number of row buffer hits during reads
system.mem_ctrls.writeRowHits                       0                       # Number of row buffer hits during writes
system.mem_ctrls.readRowHitRate                 79.20                       # Row buffer hit rate for reads
system.mem_ctrls.writeRowHitRate                  nan                       # Row buffer hit rate for writes
system.mem_ctrls.avgGap                      57305.34                       # Average gap between requests
system.mem_ctrls.pageHitRate                    79.20                       # Row buffer hit rate, read and write combined
system.mem_ctrls_0.actEnergy                  1081080                       # Energy for activate commands per rank (pJ)
system.mem_ctrls_0.preEnergy                   589875                       # Energy for precharge commands per rank (pJ)
system.mem_ctrls_0.readEnergy                 5522400                       # Energy for read commands per rank (pJ)
system.mem_ctrls_0.writeEnergy                      0                       # Energy for write commands per rank (pJ)
system.mem_ctrls_0.refreshEnergy              3051360                       # Energy for refresh commands per rank (pJ)
system.mem_ctrls_0.actBackEnergy             31531545                       # Energy for active background per rank (pJ)
system.mem_ctrls_0.preBackEnergy               527250                       # Energy for precharge background per rank (pJ)
system.mem_ctrls_0.totalEnergy               42303510                       # Total energy per rank (pJ)
system.mem_ctrls_0.averagePower            900.505774                       # Core power per rank (mW)
system.mem_ctrls_0.memoryStateTime::IDLE      1889000                       # Time in different power states
system.mem_ctrls_0.memoryStateTime::REF       1560000                       # Time in different power states
system.mem_ctrls_0.memoryStateTime::PRE_PDN            0                       # Time in different power states
system.mem_ctrls_0.memoryStateTime::ACT      44705000                       # Time in different power states
system.mem_ctrls_0.memoryStateTime::ACT_PDN            0                       # Time in different power states
system.mem_ctrls_1.actEnergy                   204120                       # Energy for activate commands per rank (pJ)
system.mem_ctrls_1.preEnergy                   111375                       # Energy for precharge commands per rank (pJ)
system.mem_ctrls_1.readEnergy                 1037400                       # Energy for read commands per rank (pJ)
system.mem_ctrls_1.writeEnergy                      0                       # Energy for write commands per rank (pJ)
system.mem_ctrls_1.refreshEnergy              3051360                       # Energy for refresh commands per rank (pJ)
system.mem_ctrls_1.actBackEnergy             25604685                       # Energy for active background per rank (pJ)
system.mem_ctrls_1.preBackEnergy              5718000                       # Energy for precharge background per rank (pJ)
system.mem_ctrls_1.totalEnergy               35726940                       # Total energy per rank (pJ)
system.mem_ctrls_1.averagePower            760.734396                       # Core power per rank (mW)
system.mem_ctrls_1.memoryStateTime::IDLE     11345750                       # Time in different power states
system.mem_ctrls_1.memoryStateTime::REF       1560000                       # Time in different power states
system.mem_ctrls_1.memoryStateTime::PRE_PDN            0                       # Time in different power states
system.mem_ctrls_1.memoryStateTime::ACT      36040750                       # Time in different power states
system.mem_ctrls_1.memoryStateTime::ACT_PDN            0                       # Time in different power states
system.cpu0.branchPred.lookups                  10047                       # Number of BP lookups
system.cpu0.branchPred.condPredicted             7857                       # Number of conditional branches predicted
system.cpu0.branchPred.condIncorrect             1431                       # Number of conditional branches incorrect
system.cpu0.branchPred.BTBLookups                4965                       # Number of BTB lookups
system.cpu0.branchPred.BTBHits                   4228                       # Number of BTB hits
system.cpu0.branchPred.BTBCorrect                   0                       # Number of correct BTB predictions (this stat may not work properly.
system.cpu0.branchPred.BTBHitPct            85.156093                       # BTB Hit Percentage
system.cpu0.branchPred.usedRAS                    739                       # Number of times the RAS was used to get a target.
system.cpu0.branchPred.RASInCorrect                 7                       # Number of incorrect RAS predictions.
system.cpu_voltage_domain.voltage                   1                       # Voltage in Volts
system.cpu_clk_domain.clock                       500                       # Clock period in ticks
system.cpu0.dstage2_mmu.stage2_tlb.walker.walks            0                       # Table walker walks requested
system.cpu0.dstage2_mmu.stage2_tlb.walker.walkRequestOrigin_Requested::Data            0                       # Table walker requests started/completed, data/inst
system.cpu0.dstage2_mmu.stage2_tlb.walker.walkRequestOrigin_Requested::Inst            0                       # Table walker requests started/completed, data/inst
system.cpu0.dstage2_mmu.stage2_tlb.walker.walkRequestOrigin_Requested::total            0                       # Table walker requests started/completed, data/inst
system.cpu0.dstage2_mmu.stage2_tlb.walker.walkRequestOrigin_Completed::Data            0                       # Table walker requests started/completed, data/inst
system.cpu0.dstage2_mmu.stage2_tlb.walker.walkRequestOrigin_Completed::Inst            0                       # Table walker requests started/completed, data/inst
system.cpu0.dstage2_mmu.stage2_tlb.walker.walkRequestOrigin_Completed::total            0                       # Table walker requests started/completed, data/inst
system.cpu0.dstage2_mmu.stage2_tlb.walker.walkRequestOrigin::total            0                       # Table walker requests started/completed, data/inst
system.cpu0.dstage2_mmu.stage2_tlb.inst_hits            0                       # ITB inst hits
system.cpu0.dstage2_mmu.stage2_tlb.inst_misses            0                       # ITB inst misses
system.cpu0.dstage2_mmu.stage2_tlb.read_hits            0                       # DTB read hits
system.cpu0.dstage2_mmu.stage2_tlb.read_misses            0                       # DTB read misses
system.cpu0.dstage2_mmu.stage2_tlb.write_hits            0                       # DTB write hits
system.cpu0.dstage2_mmu.stage2_tlb.write_misses            0                       # DTB write misses
system.cpu0.dstage2_mmu.stage2_tlb.flush_tlb            0                       # Number of times complete TLB was flushed
system.cpu0.dstage2_mmu.stage2_tlb.flush_tlb_mva            0                       # Number of times TLB was flushed by MVA
system.cpu0.dstage2_mmu.stage2_tlb.flush_tlb_mva_asid            0                       # Number of times TLB was flushed by MVA & ASID
system.cpu0.dstage2_mmu.stage2_tlb.flush_tlb_asid            0                       # Number of times TLB was flushed by ASID
system.cpu0.dstage2_mmu.stage2_tlb.flush_entries            0                       # Number of entries that have been flushed from TLB
system.cpu0.dstage2_mmu.stage2_tlb.align_faults            0                       # Number of TLB faults due to alignment restrictions
system.cpu0.dstage2_mmu.stage2_tlb.prefetch_faults            0                       # Number of TLB faults due to prefetch
system.cpu0.dstage2_mmu.stage2_tlb.domain_faults            0                       # Number of TLB faults due to domain restrictions
system.cpu0.dstage2_mmu.stage2_tlb.perms_faults            0                       # Number of TLB faults due to permissions restrictions
system.cpu0.dstage2_mmu.stage2_tlb.read_accesses            0                       # DTB read accesses
system.cpu0.dstage2_mmu.stage2_tlb.write_accesses            0                       # DTB write accesses
system.cpu0.dstage2_mmu.stage2_tlb.inst_accesses            0                       # ITB inst accesses
system.cpu0.dstage2_mmu.stage2_tlb.hits             0                       # DTB hits
system.cpu0.dstage2_mmu.stage2_tlb.misses            0                       # DTB misses
system.cpu0.dstage2_mmu.stage2_tlb.accesses            0                       # DTB accesses
system.cpu0.dtb.walker.walks                        0                       # Table walker walks requested
system.cpu0.dtb.walker.walkRequestOrigin_Requested::Data            0                       # Table walker requests started/completed, data/inst
system.cpu0.dtb.walker.walkRequestOrigin_Requested::Inst            0                       # Table walker requests started/completed, data/inst
system.cpu0.dtb.walker.walkRequestOrigin_Requested::total            0                       # Table walker requests started/completed, data/inst
system.cpu0.dtb.walker.walkRequestOrigin_Completed::Data            0                       # Table walker requests started/completed, data/inst
system.cpu0.dtb.walker.walkRequestOrigin_Completed::Inst            0                       # Table walker requests started/completed, data/inst
system.cpu0.dtb.walker.walkRequestOrigin_Completed::total            0                       # Table walker requests started/completed, data/inst
system.cpu0.dtb.walker.walkRequestOrigin::total            0                       # Table walker requests started/completed, data/inst
system.cpu0.dtb.inst_hits                           0                       # ITB inst hits
system.cpu0.dtb.inst_misses                         0                       # ITB inst misses
system.cpu0.dtb.read_hits                           0                       # DTB read hits
system.cpu0.dtb.read_misses                         0                       # DTB read misses
system.cpu0.dtb.write_hits                          0                       # DTB write hits
system.cpu0.dtb.write_misses                        0                       # DTB write misses
system.cpu0.dtb.flush_tlb                           0                       # Number of times complete TLB was flushed
system.cpu0.dtb.flush_tlb_mva                       0                       # Number of times TLB was flushed by MVA
system.cpu0.dtb.flush_tlb_mva_asid                  0                       # Number of times TLB was flushed by MVA & ASID
system.cpu0.dtb.flush_tlb_asid                      0                       # Number of times TLB was flushed by ASID
system.cpu0.dtb.flush_entries                       0                       # Number of entries that have been flushed from TLB
system.cpu0.dtb.align_faults                        0                       # Number of TLB faults due to alignment restrictions
system.cpu0.dtb.prefetch_faults                     0                       # Number of TLB faults due to prefetch
system.cpu0.dtb.domain_faults                       0                       # Number of TLB faults due to domain restrictions
system.cpu0.dtb.perms_faults                        0                       # Number of TLB faults due to permissions restrictions
system.cpu0.dtb.read_accesses                       0                       # DTB read accesses
system.cpu0.dtb.write_accesses                      0                       # DTB write accesses
system.cpu0.dtb.inst_accesses                       0                       # ITB inst accesses
system.cpu0.dtb.hits                                0                       # DTB hits
system.cpu0.dtb.misses                              0                       # DTB misses
system.cpu0.dtb.accesses                            0                       # DTB accesses
system.cpu0.istage2_mmu.stage2_tlb.walker.walks            0                       # Table walker walks requested
system.cpu0.istage2_mmu.stage2_tlb.walker.walkRequestOrigin_Requested::Data            0                       # Table walker requests started/completed, data/inst
system.cpu0.istage2_mmu.stage2_tlb.walker.walkRequestOrigin_Requested::Inst            0                       # Table walker requests started/completed, data/inst
system.cpu0.istage2_mmu.stage2_tlb.walker.walkRequestOrigin_Requested::total            0                       # Table walker requests started/completed, data/inst
system.cpu0.istage2_mmu.stage2_tlb.walker.walkRequestOrigin_Completed::Data            0                       # Table walker requests started/completed, data/inst
system.cpu0.istage2_mmu.stage2_tlb.walker.walkRequestOrigin_Completed::Inst            0                       # Table walker requests started/completed, data/inst
system.cpu0.istage2_mmu.stage2_tlb.walker.walkRequestOrigin_Completed::total            0                       # Table walker requests started/completed, data/inst
system.cpu0.istage2_mmu.stage2_tlb.walker.walkRequestOrigin::total            0                       # Table walker requests started/completed, data/inst
system.cpu0.istage2_mmu.stage2_tlb.inst_hits            0                       # ITB inst hits
system.cpu0.istage2_mmu.stage2_tlb.inst_misses            0                       # ITB inst misses
system.cpu0.istage2_mmu.stage2_tlb.read_hits            0                       # DTB read hits
system.cpu0.istage2_mmu.stage2_tlb.read_misses            0                       # DTB read misses
system.cpu0.istage2_mmu.stage2_tlb.write_hits            0                       # DTB write hits
system.cpu0.istage2_mmu.stage2_tlb.write_misses            0                       # DTB write misses
system.cpu0.istage2_mmu.stage2_tlb.flush_tlb            0                       # Number of times complete TLB was flushed
system.cpu0.istage2_mmu.stage2_tlb.flush_tlb_mva            0                       # Number of times TLB was flushed by MVA
system.cpu0.istage2_mmu.stage2_tlb.flush_tlb_mva_asid            0                       # Number of times TLB was flushed by MVA & ASID
system.cpu0.istage2_mmu.stage2_tlb.flush_tlb_asid            0                       # Number of times TLB was flushed by ASID
system.cpu0.istage2_mmu.stage2_tlb.flush_entries            0                       # Number of entries that have been flushed from TLB
system.cpu0.istage2_mmu.stage2_tlb.align_faults            0                       # Number of TLB faults due to alignment restrictions
system.cpu0.istage2_mmu.stage2_tlb.prefetch_faults            0                       # Number of TLB faults due to prefetch
system.cpu0.istage2_mmu.stage2_tlb.domain_faults            0                       # Number of TLB faults due to domain restrictions
system.cpu0.istage2_mmu.stage2_tlb.perms_faults            0                       # Number of TLB faults due to permissions restrictions
system.cpu0.istage2_mmu.stage2_tlb.read_accesses            0                       # DTB read accesses
system.cpu0.istage2_mmu.stage2_tlb.write_accesses            0                       # DTB write accesses
system.cpu0.istage2_mmu.stage2_tlb.inst_accesses            0                       # ITB inst accesses
system.cpu0.istage2_mmu.stage2_tlb.hits             0                       # DTB hits
system.cpu0.istage2_mmu.stage2_tlb.misses            0                       # DTB misses
system.cpu0.istage2_mmu.stage2_tlb.accesses            0                       # DTB accesses
system.cpu0.itb.walker.walks                        0                       # Table walker walks requested
system.cpu0.itb.walker.walkRequestOrigin_Requested::Data            0                       # Table walker requests started/completed, data/inst
system.cpu0.itb.walker.walkRequestOrigin_Requested::Inst            0                       # Table walker requests started/completed, data/inst
system.cpu0.itb.walker.walkRequestOrigin_Requested::total            0                       # Table walker requests started/completed, data/inst
system.cpu0.itb.walker.walkRequestOrigin_Completed::Data            0                       # Table walker requests started/completed, data/inst
system.cpu0.itb.walker.walkRequestOrigin_Completed::Inst            0                       # Table walker requests started/completed, data/inst
system.cpu0.itb.walker.walkRequestOrigin_Completed::total            0                       # Table walker requests started/completed, data/inst
system.cpu0.itb.walker.walkRequestOrigin::total            0                       # Table walker requests started/completed, data/inst
system.cpu0.itb.inst_hits                           0                       # ITB inst hits
system.cpu0.itb.inst_misses                         0                       # ITB inst misses
system.cpu0.itb.read_hits                           0                       # DTB read hits
system.cpu0.itb.read_misses                         0                       # DTB read misses
system.cpu0.itb.write_hits                          0                       # DTB write hits
system.cpu0.itb.write_misses                        0                       # DTB write misses
system.cpu0.itb.flush_tlb                           0                       # Number of times complete TLB was flushed
system.cpu0.itb.flush_tlb_mva                       0                       # Number of times TLB was flushed by MVA
system.cpu0.itb.flush_tlb_mva_asid                  0                       # Number of times TLB was flushed by MVA & ASID
system.cpu0.itb.flush_tlb_asid                      0                       # Number of times TLB was flushed by ASID
system.cpu0.itb.flush_entries                       0                       # Number of entries that have been flushed from TLB
system.cpu0.itb.align_faults                        0                       # Number of TLB faults due to alignment restrictions
system.cpu0.itb.prefetch_faults                     0                       # Number of TLB faults due to prefetch
system.cpu0.itb.domain_faults                       0                       # Number of TLB faults due to domain restrictions
system.cpu0.itb.perms_faults                        0                       # Number of TLB faults due to permissions restrictions
system.cpu0.itb.read_accesses                       0                       # DTB read accesses
system.cpu0.itb.write_accesses                      0                       # DTB write accesses
system.cpu0.itb.inst_accesses                       0                       # ITB inst accesses
system.cpu0.itb.hits                                0                       # DTB hits
system.cpu0.itb.misses                              0                       # DTB misses
system.cpu0.itb.accesses                            0                       # DTB accesses
system.cpu0.workload.num_syscalls                  31                       # Number of system calls
system.cpu0.numCycles                          103114                       # number of cpu cycles simulated
system.cpu0.numWorkItemsStarted                     0                       # number of work items this cpu started
system.cpu0.numWorkItemsCompleted                   0                       # number of work items this cpu completed
system.cpu0.fetch.icacheStallCycles             14497                       # Number of cycles fetch is stalled on an Icache miss
system.cpu0.fetch.Insts                         77131                       # Number of instructions fetch has processed
system.cpu0.fetch.Branches                      10047                       # Number of branches that fetch encountered
system.cpu0.fetch.predictedBranches              4967                       # Number of branches that fetch has predicted taken
system.cpu0.fetch.Cycles                        46101                       # Number of cycles fetch has run and was not squashing or blocked
system.cpu0.fetch.SquashCycles                   2921                       # Number of cycles fetch has spent squashing
system.cpu0.fetch.MiscStallCycles                 385                       # Number of cycles fetch has spent waiting on interrupts, or bad addresses, or out of MSHRs
system.cpu0.fetch.PendingTrapStallCycles          109                       # Number of stall cycles due to pending traps
system.cpu0.fetch.IcacheWaitRetryStallCycles          598                       # Number of stall cycles due to full MSHR
system.cpu0.fetch.CacheLines                    23251                       # Number of cache lines fetched
system.cpu0.fetch.IcacheSquashes                  351                       # Number of outstanding Icache misses that were squashed
system.cpu0.fetch.rateDist::samples             63150                       # Number of instructions fetched each cycle (Total)
system.cpu0.fetch.rateDist::mean             1.363975                       # Number of instructions fetched each cycle (Total)
system.cpu0.fetch.rateDist::stdev            1.288826                       # Number of instructions fetched each cycle (Total)
system.cpu0.fetch.rateDist::underflows              0      0.00%      0.00% # Number of instructions fetched each cycle (Total)
system.cpu0.fetch.rateDist::0                   23384     37.03%     37.03% # Number of instructions fetched each cycle (Total)
system.cpu0.fetch.rateDist::1                   15151     23.99%     61.02% # Number of instructions fetched each cycle (Total)
system.cpu0.fetch.rateDist::2                    2861      4.53%     65.55% # Number of instructions fetched each cycle (Total)
system.cpu0.fetch.rateDist::3                   21754     34.45%    100.00% # Number of instructions fetched each cycle (Total)
system.cpu0.fetch.rateDist::overflows               0      0.00%    100.00% # Number of instructions fetched each cycle (Total)
system.cpu0.fetch.rateDist::min_value               0                       # Number of instructions fetched each cycle (Total)
system.cpu0.fetch.rateDist::max_value               3                       # Number of instructions fetched each cycle (Total)
system.cpu0.fetch.rateDist::total               63150                       # Number of instructions fetched each cycle (Total)
system.cpu0.fetch.branchRate                 0.097436                       # Number of branch fetches per cycle
system.cpu0.fetch.rate                       0.748017                       # Number of inst fetches per cycle
system.cpu0.decode.IdleCycles                   13336                       # Number of cycles decode is idle
system.cpu0.decode.BlockedCycles                12195                       # Number of cycles decode is blocked
system.cpu0.decode.RunCycles                    35541                       # Number of cycles decode is running
system.cpu0.decode.UnblockCycles                  938                       # Number of cycles decode is unblocking
system.cpu0.decode.SquashCycles                  1140                       # Number of cycles decode is squashing
system.cpu0.decode.BranchResolved                 878                       # Number of times decode resolved a branch
system.cpu0.decode.BranchMispred                  342                       # Number of times decode detected a branch misprediction
system.cpu0.decode.DecodedInsts                 76107                       # Number of instructions handled by decode
system.cpu0.decode.SquashedInsts                 5197                       # Number of squashed instructions handled by decode
system.cpu0.rename.SquashCycles                  1140                       # Number of cycles rename is squashing
system.cpu0.rename.IdleCycles                   17231                       # Number of cycles rename is idle
system.cpu0.rename.BlockCycles                   2980                       # Number of cycles rename is blocking
system.cpu0.rename.serializeStallCycles          5969                       # count of cycles rename stalled for serializing inst
system.cpu0.rename.RunCycles                    32571                       # Number of cycles rename is running
system.cpu0.rename.UnblockCycles                 3259                       # Number of cycles rename is unblocking
system.cpu0.rename.RenamedInsts                 72101                       # Number of instructions processed by rename
system.cpu0.rename.SquashedInsts                 1811                       # Number of squashed instructions processed by rename
system.cpu0.rename.ROBFullEvents                   75                       # Number of times rename has blocked due to ROB full
system.cpu0.rename.IQFullEvents                    10                       # Number of times rename has blocked due to IQ full
system.cpu0.rename.LQFullEvents                    11                       # Number of times rename has blocked due to LQ full
system.cpu0.rename.SQFullEvents                  2718                       # Number of times rename has blocked due to SQ full
system.cpu0.rename.RenamedOperands              84806                       # Number of destination operands rename has renamed
system.cpu0.rename.RenameLookups               349493                       # Number of register rename lookups that rename has made
system.cpu0.rename.int_rename_lookups          105212                       # Number of integer rename lookups
system.cpu0.rename.fp_rename_lookups               22                       # Number of floating rename lookups
system.cpu0.rename.CommittedMaps                72288                       # Number of HB maps that are committed
system.cpu0.rename.UndoneMaps                   12518                       # Number of HB maps that are undone due to squashing
system.cpu0.rename.serializingInsts                97                       # count of serializing insts renamed
system.cpu0.rename.tempSerializingInsts            95                       # count of temporary serializing insts renamed
system.cpu0.rename.skidInsts                     2102                       # count of insts added to the skid buffer
system.cpu0.memDep0.insertedLoads               14065                       # Number of loads inserted to the mem dependence unit.
system.cpu0.memDep0.insertedStores               7575                       # Number of stores inserted to the mem dependence unit.
system.cpu0.memDep0.conflictingLoads              233                       # Number of conflicting loads.
system.cpu0.memDep0.conflictingStores             116                       # Number of conflicting stores.
system.cpu0.iq.iqInstsAdded                     70108                       # Number of instructions added to the IQ (excludes non-spec)
system.cpu0.iq.iqNonSpecInstsAdded                229                       # Number of non-speculative instructions added to the IQ
system.cpu0.iq.iqInstsIssued                    66760                       # Number of instructions issued
system.cpu0.iq.iqSquashedInstsIssued              528                       # Number of squashed instructions issued
system.cpu0.iq.iqSquashedInstsExamined           9570                       # Number of squashed instructions iterated over during squash; mainly for profiling
system.cpu0.iq.iqSquashedOperandsExamined        24528                       # Number of squashed operands that are examined and possibly removed from graph
system.cpu0.iq.iqSquashedNonSpecRemoved            44                       # Number of squashed non-spec instructions that were removed
system.cpu0.iq.issued_per_cycle::samples        63150                       # Number of insts issued each cycle
system.cpu0.iq.issued_per_cycle::mean        1.057165                       # Number of insts issued each cycle
system.cpu0.iq.issued_per_cycle::stdev       1.219277                       # Number of insts issued each cycle
system.cpu0.iq.issued_per_cycle::underflows            0      0.00%      0.00% # Number of insts issued each cycle
system.cpu0.iq.issued_per_cycle::0              31299     49.56%     49.56% # Number of insts issued each cycle
system.cpu0.iq.issued_per_cycle::1              10068     15.94%     65.51% # Number of insts issued each cycle
system.cpu0.iq.issued_per_cycle::2               9467     14.99%     80.50% # Number of insts issued each cycle
system.cpu0.iq.issued_per_cycle::3              11509     18.22%     98.72% # Number of insts issued each cycle
system.cpu0.iq.issued_per_cycle::4                804      1.27%    100.00% # Number of insts issued each cycle
system.cpu0.iq.issued_per_cycle::5                  3      0.00%    100.00% # Number of insts issued each cycle
system.cpu0.iq.issued_per_cycle::6                  0      0.00%    100.00% # Number of insts issued each cycle
system.cpu0.iq.issued_per_cycle::7                  0      0.00%    100.00% # Number of insts issued each cycle
system.cpu0.iq.issued_per_cycle::8                  0      0.00%    100.00% # Number of insts issued each cycle
system.cpu0.iq.issued_per_cycle::overflows            0      0.00%    100.00% # Number of insts issued each cycle
system.cpu0.iq.issued_per_cycle::min_value            0                       # Number of insts issued each cycle
system.cpu0.iq.issued_per_cycle::max_value            5                       # Number of insts issued each cycle
system.cpu0.iq.issued_per_cycle::total          63150                       # Number of insts issued each cycle
system.cpu0.iq.fu_full::No_OpClass                  0      0.00%      0.00% # attempts to use FU when none available
system.cpu0.iq.fu_full::IntAlu                   2534     21.19%     21.19% # attempts to use FU when none available
system.cpu0.iq.fu_full::IntMult                   241      2.02%     23.21% # attempts to use FU when none available
system.cpu0.iq.fu_full::IntDiv                      0      0.00%     23.21% # attempts to use FU when none available
system.cpu0.iq.fu_full::FloatAdd                    0      0.00%     23.21% # attempts to use FU when none available
system.cpu0.iq.fu_full::FloatCmp                    0      0.00%     23.21% # attempts to use FU when none available
system.cpu0.iq.fu_full::FloatCvt                    0      0.00%     23.21% # attempts to use FU when none available
system.cpu0.iq.fu_full::FloatMult                   0      0.00%     23.21% # attempts to use FU when none available
system.cpu0.iq.fu_full::FloatDiv                    0      0.00%     23.21% # attempts to use FU when none available
system.cpu0.iq.fu_full::FloatSqrt                   0      0.00%     23.21% # attempts to use FU when none available
system.cpu0.iq.fu_full::SimdAdd                     0      0.00%     23.21% # attempts to use FU when none available
system.cpu0.iq.fu_full::SimdAddAcc                  0      0.00%     23.21% # attempts to use FU when none available
system.cpu0.iq.fu_full::SimdAlu                     0      0.00%     23.21% # attempts to use FU when none available
system.cpu0.iq.fu_full::SimdCmp                     0      0.00%     23.21% # attempts to use FU when none available
system.cpu0.iq.fu_full::SimdCvt                     0      0.00%     23.21% # attempts to use FU when none available
system.cpu0.iq.fu_full::SimdMisc                    0      0.00%     23.21% # attempts to use FU when none available
system.cpu0.iq.fu_full::SimdMult                    0      0.00%     23.21% # attempts to use FU when none available
system.cpu0.iq.fu_full::SimdMultAcc                 0      0.00%     23.21% # attempts to use FU when none available
system.cpu0.iq.fu_full::SimdShift                   0      0.00%     23.21% # attempts to use FU when none available
system.cpu0.iq.fu_full::SimdShiftAcc                0      0.00%     23.21% # attempts to use FU when none available
system.cpu0.iq.fu_full::SimdSqrt                    0      0.00%     23.21% # attempts to use FU when none available
system.cpu0.iq.fu_full::SimdFloatAdd                0      0.00%     23.21% # attempts to use FU when none available
system.cpu0.iq.fu_full::SimdFloatAlu                0      0.00%     23.21% # attempts to use FU when none available
system.cpu0.iq.fu_full::SimdFloatCmp                0      0.00%     23.21% # attempts to use FU when none available
system.cpu0.iq.fu_full::SimdFloatCvt                0      0.00%     23.21% # attempts to use FU when none available
system.cpu0.iq.fu_full::SimdFloatDiv                0      0.00%     23.21% # attempts to use FU when none available
system.cpu0.iq.fu_full::SimdFloatMisc               0      0.00%     23.21% # attempts to use FU when none available
system.cpu0.iq.fu_full::SimdFloatMult               0      0.00%     23.21% # attempts to use FU when none available
system.cpu0.iq.fu_full::SimdFloatMultAcc            0      0.00%     23.21% # attempts to use FU when none available
system.cpu0.iq.fu_full::SimdFloatSqrt               0      0.00%     23.21% # attempts to use FU when none available
system.cpu0.iq.fu_full::MemRead                  5769     48.25%     71.46% # attempts to use FU when none available
system.cpu0.iq.fu_full::MemWrite                 3413     28.54%    100.00% # attempts to use FU when none available
system.cpu0.iq.fu_full::IprAccess                   0      0.00%    100.00% # attempts to use FU when none available
system.cpu0.iq.fu_full::InstPrefetch                0      0.00%    100.00% # attempts to use FU when none available
system.cpu0.iq.FU_type_0::No_OpClass                0      0.00%      0.00% # Type of FU issued
system.cpu0.iq.FU_type_0::IntAlu                39415     59.04%     59.04% # Type of FU issued
system.cpu0.iq.FU_type_0::IntMult                6714     10.06%     69.10% # Type of FU issued
system.cpu0.iq.FU_type_0::IntDiv                    0      0.00%     69.10% # Type of FU issued
system.cpu0.iq.FU_type_0::FloatAdd                  0      0.00%     69.10% # Type of FU issued
system.cpu0.iq.FU_type_0::FloatCmp                  0      0.00%     69.10% # Type of FU issued
system.cpu0.iq.FU_type_0::FloatCvt                  0      0.00%     69.10% # Type of FU issued
system.cpu0.iq.FU_type_0::FloatMult                 0      0.00%     69.10% # Type of FU issued
system.cpu0.iq.FU_type_0::FloatDiv                  0      0.00%     69.10% # Type of FU issued
system.cpu0.iq.FU_type_0::FloatSqrt                 0      0.00%     69.10% # Type of FU issued
system.cpu0.iq.FU_type_0::SimdAdd                   0      0.00%     69.10% # Type of FU issued
system.cpu0.iq.FU_type_0::SimdAddAcc                0      0.00%     69.10% # Type of FU issued
system.cpu0.iq.FU_type_0::SimdAlu                   0      0.00%     69.10% # Type of FU issued
system.cpu0.iq.FU_type_0::SimdCmp                   0      0.00%     69.10% # Type of FU issued
system.cpu0.iq.FU_type_0::SimdCvt                   0      0.00%     69.10% # Type of FU issued
system.cpu0.iq.FU_type_0::SimdMisc                  0      0.00%     69.10% # Type of FU issued
system.cpu0.iq.FU_type_0::SimdMult                  0      0.00%     69.10% # Type of FU issued
system.cpu0.iq.FU_type_0::SimdMultAcc               0      0.00%     69.10% # Type of FU issued
system.cpu0.iq.FU_type_0::SimdShift                 0      0.00%     69.10% # Type of FU issued
system.cpu0.iq.FU_type_0::SimdShiftAcc              0      0.00%     69.10% # Type of FU issued
system.cpu0.iq.FU_type_0::SimdSqrt                  0      0.00%     69.10% # Type of FU issued
system.cpu0.iq.FU_type_0::SimdFloatAdd              0      0.00%     69.10% # Type of FU issued
system.cpu0.iq.FU_type_0::SimdFloatAlu              0      0.00%     69.10% # Type of FU issued
system.cpu0.iq.FU_type_0::SimdFloatCmp              0      0.00%     69.10% # Type of FU issued
system.cpu0.iq.FU_type_0::SimdFloatCvt              0      0.00%     69.10% # Type of FU issued
system.cpu0.iq.FU_type_0::SimdFloatDiv              0      0.00%     69.10% # Type of FU issued
system.cpu0.iq.FU_type_0::SimdFloatMisc             3      0.00%     69.10% # Type of FU issued
system.cpu0.iq.FU_type_0::SimdFloatMult             0      0.00%     69.10% # Type of FU issued
system.cpu0.iq.FU_type_0::SimdFloatMultAcc            0      0.00%     69.10% # Type of FU issued
system.cpu0.iq.FU_type_0::SimdFloatSqrt             0      0.00%     69.10% # Type of FU issued
system.cpu0.iq.FU_type_0::MemRead               13547     20.29%     89.39% # Type of FU issued
system.cpu0.iq.FU_type_0::MemWrite               7081     10.61%    100.00% # Type of FU issued
system.cpu0.iq.FU_type_0::IprAccess                 0      0.00%    100.00% # Type of FU issued
system.cpu0.iq.FU_type_0::InstPrefetch              0      0.00%    100.00% # Type of FU issued
system.cpu0.iq.FU_type_0::total                 66760                       # Type of FU issued
system.cpu0.iq.rate                          0.647439                       # Inst issue rate
system.cpu0.iq.fu_busy_cnt                      11957                       # FU busy when requested
system.cpu0.iq.fu_busy_rate                  0.179104                       # FU busy rate (busy events/executed inst)
system.cpu0.iq.int_inst_queue_reads            209078                       # Number of integer instruction queue reads
system.cpu0.iq.int_inst_queue_writes            79896                       # Number of integer instruction queue writes
system.cpu0.iq.int_inst_queue_wakeup_accesses        64194                       # Number of integer instruction queue wakeup accesses
system.cpu0.iq.fp_inst_queue_reads                 77                       # Number of floating instruction queue reads
system.cpu0.iq.fp_inst_queue_writes                28                       # Number of floating instruction queue writes
system.cpu0.iq.fp_inst_queue_wakeup_accesses           28                       # Number of floating instruction queue wakeup accesses
system.cpu0.iq.int_alu_accesses                 78668                       # Number of integer alu accesses
system.cpu0.iq.fp_alu_accesses                     49                       # Number of floating point alu accesses
system.cpu0.iew.lsq.thread0.forwLoads              48                       # Number of loads that had data forwarded from stores
system.cpu0.iew.lsq.thread0.invAddrLoads            0                       # Number of loads ignored due to an invalid address
system.cpu0.iew.lsq.thread0.squashedLoads         2358                       # Number of loads squashed
system.cpu0.iew.lsq.thread0.ignoredResponses            0                       # Number of memory responses ignored because the instruction is squashed
system.cpu0.iew.lsq.thread0.memOrderViolation           18                       # Number of memory ordering violations
system.cpu0.iew.lsq.thread0.squashedStores          919                       # Number of stores squashed
system.cpu0.iew.lsq.thread0.invAddrSwpfs            0                       # Number of software prefetches ignored due to an invalid address
system.cpu0.iew.lsq.thread0.blockedLoads            0                       # Number of blocked loads due to partial load-store forwarding
system.cpu0.iew.lsq.thread0.rescheduledLoads            8                       # Number of loads that were rescheduled
system.cpu0.iew.lsq.thread0.cacheBlocked          155                       # Number of times an access to memory failed due to the cache being blocked
system.cpu0.iew.iewIdleCycles                       0                       # Number of cycles IEW is idle
system.cpu0.iew.iewSquashCycles                  1140                       # Number of cycles IEW is squashing
system.cpu0.iew.iewBlockCycles                    562                       # Number of cycles IEW is blocking
system.cpu0.iew.iewUnblockCycles                   85                       # Number of cycles IEW is unblocking
system.cpu0.iew.iewDispatchedInsts              70351                       # Number of instructions dispatched to IQ
system.cpu0.iew.iewDispSquashedInsts                0                       # Number of squashed instructions skipped by dispatch
system.cpu0.iew.iewDispLoadInsts                14065                       # Number of dispatched load instructions
system.cpu0.iew.iewDispStoreInsts                7575                       # Number of dispatched store instructions
system.cpu0.iew.iewDispNonSpecInsts                93                       # Number of dispatched non-speculative instructions
system.cpu0.iew.iewIQFullEvents                     1                       # Number of times the IQ has become full, causing a stall
system.cpu0.iew.iewLSQFullEvents                   84                       # Number of times the LSQ has become full, causing a stall
system.cpu0.iew.memOrderViolationEvents            18                       # Number of memory order violations
system.cpu0.iew.predictedTakenIncorrect           198                       # Number of branches that were predicted taken incorrectly
system.cpu0.iew.predictedNotTakenIncorrect          975                       # Number of branches that were predicted not taken incorrectly
system.cpu0.iew.branchMispredicts                1173                       # Number of branch mispredicts detected at execute
system.cpu0.iew.iewExecutedInsts                64883                       # Number of executed instructions
system.cpu0.iew.iewExecLoadInsts                12779                       # Number of load instructions executed
system.cpu0.iew.iewExecSquashedInsts             1877                       # Number of squashed instructions skipped in execute
system.cpu0.iew.exec_swp                            0                       # number of swp insts executed
system.cpu0.iew.exec_nop                           14                       # number of nop insts executed
system.cpu0.iew.exec_refs                       19690                       # number of memory reference insts executed
system.cpu0.iew.exec_branches                    6623                       # Number of branches executed
system.cpu0.iew.exec_stores                      6911                       # Number of stores executed
system.cpu0.iew.exec_rate                    0.629236                       # Inst execution rate
system.cpu0.iew.wb_sent                         64334                       # cumulative count of insts sent to commit
system.cpu0.iew.wb_count                        64222                       # cumulative count of insts written-back
system.cpu0.iew.wb_producers                    38620                       # num instructions producing a value
system.cpu0.iew.wb_consumers                    61528                       # num instructions consuming a value
system.cpu0.iew.wb_penalized                        0                       # number of instrctions required to write to 'other' IQ
system.cpu0.iew.wb_rate                      0.622825                       # insts written-back per cycle
system.cpu0.iew.wb_fanout                    0.627682                       # average fanout of values written-back
system.cpu0.iew.wb_penalized_rate                   0                       # fraction of instructions written-back that wrote to 'other' IQ
system.cpu0.commit.commitSquashedInsts           7577                       # The number of squashed insts skipped by commit
system.cpu0.commit.commitNonSpecStalls            185                       # The number of times commit has been forced to stall to communicate backwards
system.cpu0.commit.branchMispredicts             1111                       # The number of times a branch was mispredicted
system.cpu0.commit.committed_per_cycle::samples        61569                       # Number of insts commited each cycle
system.cpu0.commit.committed_per_cycle::mean     0.986974                       # Number of insts commited each cycle
system.cpu0.commit.committed_per_cycle::stdev     1.808081                       # Number of insts commited each cycle
system.cpu0.commit.committed_per_cycle::underflows            0      0.00%      0.00% # Number of insts commited each cycle
system.cpu0.commit.committed_per_cycle::0        37463     60.85%     60.85% # Number of insts commited each cycle
system.cpu0.commit.committed_per_cycle::1        11008     17.88%     78.73% # Number of insts commited each cycle
system.cpu0.commit.committed_per_cycle::2         5157      8.38%     87.10% # Number of insts commited each cycle
system.cpu0.commit.committed_per_cycle::3         3282      5.33%     92.43% # Number of insts commited each cycle
system.cpu0.commit.committed_per_cycle::4          906      1.47%     93.90% # Number of insts commited each cycle
system.cpu0.commit.committed_per_cycle::5          735      1.19%     95.10% # Number of insts commited each cycle
system.cpu0.commit.committed_per_cycle::6          857      1.39%     96.49% # Number of insts commited each cycle
system.cpu0.commit.committed_per_cycle::7          130      0.21%     96.70% # Number of insts commited each cycle
system.cpu0.commit.committed_per_cycle::8         2031      3.30%    100.00% # Number of insts commited each cycle
system.cpu0.commit.committed_per_cycle::overflows            0      0.00%    100.00% # Number of insts commited each cycle
system.cpu0.commit.committed_per_cycle::min_value            0                       # Number of insts commited each cycle
system.cpu0.commit.committed_per_cycle::max_value            8                       # Number of insts commited each cycle
system.cpu0.commit.committed_per_cycle::total        61569                       # Number of insts commited each cycle
system.cpu0.commit.committedInsts               55305                       # Number of instructions committed
system.cpu0.commit.committedOps                 60767                       # Number of ops (including micro ops) committed
system.cpu0.commit.swp_count                        0                       # Number of s/w prefetches committed
system.cpu0.commit.refs                         18363                       # Number of memory references committed
system.cpu0.commit.loads                        11707                       # Number of loads committed
system.cpu0.commit.membars                        113                       # Number of memory barriers committed
system.cpu0.commit.branches                      6070                       # Number of branches committed
system.cpu0.commit.fp_insts                        28                       # Number of committed floating point instructions.
system.cpu0.commit.int_insts                    55192                       # Number of committed integer instructions.
system.cpu0.commit.function_calls                 286                       # Number of function calls committed.
system.cpu0.commit.op_class_0::No_OpClass            0      0.00%      0.00% # Class of committed instruction
system.cpu0.commit.op_class_0::IntAlu           35721     58.78%     58.78% # Class of committed instruction
system.cpu0.commit.op_class_0::IntMult           6680     10.99%     69.78% # Class of committed instruction
system.cpu0.commit.op_class_0::IntDiv               0      0.00%     69.78% # Class of committed instruction
system.cpu0.commit.op_class_0::FloatAdd             0      0.00%     69.78% # Class of committed instruction
system.cpu0.commit.op_class_0::FloatCmp             0      0.00%     69.78% # Class of committed instruction
system.cpu0.commit.op_class_0::FloatCvt             0      0.00%     69.78% # Class of committed instruction
system.cpu0.commit.op_class_0::FloatMult            0      0.00%     69.78% # Class of committed instruction
system.cpu0.commit.op_class_0::FloatDiv             0      0.00%     69.78% # Class of committed instruction
system.cpu0.commit.op_class_0::FloatSqrt            0      0.00%     69.78% # Class of committed instruction
system.cpu0.commit.op_class_0::SimdAdd              0      0.00%     69.78% # Class of committed instruction
system.cpu0.commit.op_class_0::SimdAddAcc            0      0.00%     69.78% # Class of committed instruction
system.cpu0.commit.op_class_0::SimdAlu              0      0.00%     69.78% # Class of committed instruction
system.cpu0.commit.op_class_0::SimdCmp              0      0.00%     69.78% # Class of committed instruction
system.cpu0.commit.op_class_0::SimdCvt              0      0.00%     69.78% # Class of committed instruction
system.cpu0.commit.op_class_0::SimdMisc             0      0.00%     69.78% # Class of committed instruction
system.cpu0.commit.op_class_0::SimdMult             0      0.00%     69.78% # Class of committed instruction
system.cpu0.commit.op_class_0::SimdMultAcc            0      0.00%     69.78% # Class of committed instruction
system.cpu0.commit.op_class_0::SimdShift            0      0.00%     69.78% # Class of committed instruction
system.cpu0.commit.op_class_0::SimdShiftAcc            0      0.00%     69.78% # Class of committed instruction
system.cpu0.commit.op_class_0::SimdSqrt             0      0.00%     69.78% # Class of committed instruction
system.cpu0.commit.op_class_0::SimdFloatAdd            0      0.00%     69.78% # Class of committed instruction
system.cpu0.commit.op_class_0::SimdFloatAlu            0      0.00%     69.78% # Class of committed instruction
system.cpu0.commit.op_class_0::SimdFloatCmp            0      0.00%     69.78% # Class of committed instruction
system.cpu0.commit.op_class_0::SimdFloatCvt            0      0.00%     69.78% # Class of committed instruction
system.cpu0.commit.op_class_0::SimdFloatDiv            0      0.00%     69.78% # Class of committed instruction
system.cpu0.commit.op_class_0::SimdFloatMisc            3      0.00%     69.78% # Class of committed instruction
system.cpu0.commit.op_class_0::SimdFloatMult            0      0.00%     69.78% # Class of committed instruction
system.cpu0.commit.op_class_0::SimdFloatMultAcc            0      0.00%     69.78% # Class of committed instruction
system.cpu0.commit.op_class_0::SimdFloatSqrt            0      0.00%     69.78% # Class of committed instruction
system.cpu0.commit.op_class_0::MemRead          11707     19.27%     89.05% # Class of committed instruction
system.cpu0.commit.op_class_0::MemWrite          6656     10.95%    100.00% # Class of committed instruction
system.cpu0.commit.op_class_0::IprAccess            0      0.00%    100.00% # Class of committed instruction
system.cpu0.commit.op_class_0::InstPrefetch            0      0.00%    100.00% # Class of committed instruction
system.cpu0.commit.op_class_0::total            60767                       # Class of committed instruction
system.cpu0.commit.bw_lim_events                 2031                       # number cycles where commit BW limit reached
system.cpu0.rob.rob_reads                      127673                       # The number of ROB reads
system.cpu0.rob.rob_writes                     138272                       # The number of ROB writes
system.cpu0.timesIdled                            413                       # Number of times that the entire CPU went into an idle state and unscheduled itself
system.cpu0.idleCycles                          39964                       # Total number of cycles that the CPU has spent unscheduled due to idling
system.cpu0.committedInsts                      55305                       # Number of Instructions Simulated
system.cpu0.committedOps                        60767                       # Number of Ops (including micro ops) Simulated
system.cpu0.cpi                              1.864461                       # CPI: Cycles Per Instruction
system.cpu0.cpi_total                        1.864461                       # CPI: Total CPI of All Threads
system.cpu0.ipc                              0.536348                       # IPC: Instructions Per Cycle
system.cpu0.ipc_total                        0.536348                       # IPC: Total IPC of All Threads
system.cpu0.int_regfile_reads                   92917                       # number of integer regfile reads
system.cpu0.int_regfile_writes                  48071                       # number of integer regfile writes
system.cpu0.fp_regfile_reads                      182                       # number of floating regfile reads
system.cpu0.fp_regfile_writes                       6                       # number of floating regfile writes
[...]
system.l2.demand_mshr_hits::total                  27                       # number of demand (read+write) MSHR hits
system.l2.overall_mshr_hits::cpu0.inst              5                       # number of overall MSHR hits
system.l2.overall_mshr_hits::cpu0.data             19                       # number of overall MSHR hits
system.l2.overall_mshr_hits::cpu1.inst              3                       # number of overall MSHR hits
system.l2.overall_mshr_hits::total                 27                       # number of overall MSHR hits
system.l2.ReadReq_mshr_misses::cpu0.inst          518                       # number of ReadReq MSHR misses
system.l2.ReadReq_mshr_misses::cpu0.data          110                       # number of ReadReq MSHR misses
system.l2.ReadReq_mshr_misses::cpu1.inst           19                       # number of ReadReq MSHR misses
system.l2.ReadReq_mshr_misses::total              647                       # number of ReadReq MSHR misses
system.l2.HardPFReq_mshr_misses::l2.prefetcher          231                       # number of HardPFReq MSHR misses
system.l2.HardPFReq_mshr_misses::total            231                       # number of HardPFReq MSHR misses
system.l2.UpgradeReq_mshr_misses::cpu0.data            4                       # number of UpgradeReq MSHR misses
system.l2.UpgradeReq_mshr_misses::total             4                       # number of UpgradeReq MSHR misses
system.l2.SCUpgradeReq_mshr_misses::cpu0.data            1                       # number of SCUpgradeReq MSHR misses
system.l2.SCUpgradeReq_mshr_misses::total            1                       # number of SCUpgradeReq MSHR misses
system.l2.ReadExReq_mshr_misses::cpu0.data           55                       # number of ReadExReq MSHR misses
system.l2.ReadExReq_mshr_misses::cpu1.data            4                       # number of ReadExReq MSHR misses
system.l2.ReadExReq_mshr_misses::total             59                       # number of ReadExReq MSHR misses
system.l2.demand_mshr_misses::cpu0.inst           518                       # number of demand (read+write) MSHR misses
system.l2.demand_mshr_misses::cpu0.data           165                       # number of demand (read+write) MSHR misses
system.l2.demand_mshr_misses::cpu1.inst            19                       # number of demand (read+write) MSHR misses
system.l2.demand_mshr_misses::cpu1.data             4                       # number of demand (read+write) MSHR misses
system.l2.demand_mshr_misses::total               706                       # number of demand (read+write) MSHR misses
system.l2.overall_mshr_misses::cpu0.inst          518                       # number of overall MSHR misses
system.l2.overall_mshr_misses::cpu0.data          165                       # number of overall MSHR misses
system.l2.overall_mshr_misses::cpu1.inst           19                       # number of overall MSHR misses
system.l2.overall_mshr_misses::cpu1.data            4                       # number of overall MSHR misses
system.l2.overall_mshr_misses::l2.prefetcher          231                       # number of overall MSHR misses
system.l2.overall_mshr_misses::total              937                       # number of overall MSHR misses
system.l2.ReadReq_mshr_miss_latency::cpu0.inst     31755250                       # number of ReadReq MSHR miss cycles
system.l2.ReadReq_mshr_miss_latency::cpu0.data      7134750                       # number of ReadReq MSHR miss cycles
system.l2.ReadReq_mshr_miss_latency::cpu1.inst      1425500                       # number of ReadReq MSHR miss cycles
system.l2.ReadReq_mshr_miss_latency::total     40315500                       # number of ReadReq MSHR miss cycles
system.l2.HardPFReq_mshr_miss_latency::l2.prefetcher     11080491                       # number of HardPFReq MSHR miss cycles
system.l2.HardPFReq_mshr_miss_latency::total     11080491                       # number of HardPFReq MSHR miss cycles
system.l2.UpgradeReq_mshr_miss_latency::cpu0.data        55004                       # number of UpgradeReq MSHR miss cycles
system.l2.UpgradeReq_mshr_miss_latency::total        55004                       # number of UpgradeReq MSHR miss cycles
system.l2.SCUpgradeReq_mshr_miss_latency::cpu0.data        14001                       # number of SCUpgradeReq MSHR miss cycles
system.l2.SCUpgradeReq_mshr_miss_latency::total        14001                       # number of SCUpgradeReq MSHR miss cycles
system.l2.ReadExReq_mshr_miss_latency::cpu0.data      4077750                       # number of ReadExReq MSHR miss cycles
system.l2.ReadExReq_mshr_miss_latency::cpu1.data       267750                       # number of ReadExReq MSHR miss cycles
system.l2.ReadExReq_mshr_miss_latency::total      4345500                       # number of ReadExReq MSHR miss cycles
system.l2.demand_mshr_miss_latency::cpu0.inst     31755250                       # number of demand (read+write) MSHR miss cycles
system.l2.demand_mshr_miss_latency::cpu0.data     11212500                       # number of demand (read+write) MSHR miss cycles
system.l2.demand_mshr_miss_latency::cpu1.inst      1425500                       # number of demand (read+write) MSHR miss cycles
system.l2.demand_mshr_miss_latency::cpu1.data       267750                       # number of demand (read+write) MSHR miss cycles
system.l2.demand_mshr_miss_latency::total     44661000                       # number of demand (read+write) MSHR miss cycles
system.l2.overall_mshr_miss_latency::cpu0.inst     31755250                       # number of overall MSHR miss cycles
system.l2.overall_mshr_miss_latency::cpu0.data     11212500                       # number of overall MSHR miss cycles
system.l2.overall_mshr_miss_latency::cpu1.inst      1425500                       # number of overall MSHR miss cycles
system.l2.overall_mshr_miss_latency::cpu1.data       267750                       # number of overall MSHR miss cycles
system.l2.overall_mshr_miss_latency::l2.prefetcher     11080491                       # number of overall MSHR miss cycles
system.l2.overall_mshr_miss_latency::total     55741491                       # number of overall MSHR miss cycles
system.l2.ReadReq_mshr_miss_rate::cpu0.inst     0.838188                       # mshr miss rate for ReadReq accesses
system.l2.ReadReq_mshr_miss_rate::cpu0.data     0.683230                       # mshr miss rate for ReadReq accesses
system.l2.ReadReq_mshr_miss_rate::cpu1.inst     0.358491                       # mshr miss rate for ReadReq accesses
system.l2.ReadReq_mshr_miss_rate::total      0.766588                       # mshr miss rate for ReadReq accesses
system.l2.HardPFReq_mshr_miss_rate::l2.prefetcher          inf                       # mshr miss rate for HardPFReq accesses
system.l2.HardPFReq_mshr_miss_rate::total          inf                       # mshr miss rate for HardPFReq accesses
system.l2.UpgradeReq_mshr_miss_rate::cpu0.data     0.666667                       # mshr miss rate for UpgradeReq accesses
system.l2.UpgradeReq_mshr_miss_rate::total     0.666667                       # mshr miss rate for UpgradeReq accesses
system.l2.SCUpgradeReq_mshr_miss_rate::cpu0.data            1                       # mshr miss rate for SCUpgradeReq accesses
system.l2.SCUpgradeReq_mshr_miss_rate::total            1                       # mshr miss rate for SCUpgradeReq accesses
system.l2.ReadExReq_mshr_miss_rate::cpu0.data     0.239130                       # mshr miss rate for ReadExReq accesses
system.l2.ReadExReq_mshr_miss_rate::cpu1.data            1                       # mshr miss rate for ReadExReq accesses
system.l2.ReadExReq_mshr_miss_rate::total     0.252137                       # mshr miss rate for ReadExReq accesses
system.l2.demand_mshr_miss_rate::cpu0.inst     0.838188                       # mshr miss rate for demand accesses
system.l2.demand_mshr_miss_rate::cpu0.data     0.421995                       # mshr miss rate for demand accesses
system.l2.demand_mshr_miss_rate::cpu1.inst     0.358491                       # mshr miss rate for demand accesses
system.l2.demand_mshr_miss_rate::cpu1.data     0.250000                       # mshr miss rate for demand accesses
system.l2.demand_mshr_miss_rate::total       0.654917                       # mshr miss rate for demand accesses
system.l2.overall_mshr_miss_rate::cpu0.inst     0.838188                       # mshr miss rate for overall accesses
system.l2.overall_mshr_miss_rate::cpu0.data     0.421995                       # mshr miss rate for overall accesses
system.l2.overall_mshr_miss_rate::cpu1.inst     0.358491                       # mshr miss rate for overall accesses
system.l2.overall_mshr_miss_rate::cpu1.data     0.250000                       # mshr miss rate for overall accesses
system.l2.overall_mshr_miss_rate::l2.prefetcher          inf                       # mshr miss rate for overall accesses
system.l2.overall_mshr_miss_rate::total      0.869202                       # mshr miss rate for overall accesses
system.l2.ReadReq_avg_mshr_miss_latency::cpu0.inst 61303.571429                       # average ReadReq mshr miss latency
system.l2.ReadReq_avg_mshr_miss_latency::cpu0.data 64861.363636                       # average ReadReq mshr miss latency
system.l2.ReadReq_avg_mshr_miss_latency::cpu1.inst 75026.315789                       # average ReadReq mshr miss latency
system.l2.ReadReq_avg_mshr_miss_latency::total 62311.437403                       # average ReadReq mshr miss latency
system.l2.HardPFReq_avg_mshr_miss_latency::l2.prefetcher 47967.493506                       # average HardPFReq mshr miss latency
system.l2.HardPFReq_avg_mshr_miss_latency::total 47967.493506                       # average HardPFReq mshr miss latency
system.l2.UpgradeReq_avg_mshr_miss_latency::cpu0.data        13751                       # average UpgradeReq mshr miss latency
system.l2.UpgradeReq_avg_mshr_miss_latency::total        13751                       # average UpgradeReq mshr miss latency
system.l2.SCUpgradeReq_avg_mshr_miss_latency::cpu0.data        14001                       # average SCUpgradeReq mshr miss latency
system.l2.SCUpgradeReq_avg_mshr_miss_latency::total        14001                       # average SCUpgradeReq mshr miss latency
system.l2.ReadExReq_avg_mshr_miss_latency::cpu0.data 74140.909091                       # average ReadExReq mshr miss latency
system.l2.ReadExReq_avg_mshr_miss_latency::cpu1.data 66937.500000                       # average ReadExReq mshr miss latency
system.l2.ReadExReq_avg_mshr_miss_latency::total 73652.542373                       # average ReadExReq mshr miss latency
system.l2.demand_avg_mshr_miss_latency::cpu0.inst 61303.571429                       # average overall mshr miss latency
system.l2.demand_avg_mshr_miss_latency::cpu0.data 67954.545455                       # average overall mshr miss latency
system.l2.demand_avg_mshr_miss_latency::cpu1.inst 75026.315789                       # average overall mshr miss latency
system.l2.demand_avg_mshr_miss_latency::cpu1.data 66937.500000                       # average overall mshr miss latency
system.l2.demand_avg_mshr_miss_latency::total 63259.206799                       # average overall mshr miss latency
system.l2.overall_avg_mshr_miss_latency::cpu0.inst 61303.571429                       # average overall mshr miss latency
system.l2.overall_avg_mshr_miss_latency::cpu0.data 67954.545455                       # average overall mshr miss latency
system.l2.overall_avg_mshr_miss_latency::cpu1.inst 75026.315789                       # average overall mshr miss latency
system.l2.overall_avg_mshr_miss_latency::cpu1.data 66937.500000                       # average overall mshr miss latency
system.l2.overall_avg_mshr_miss_latency::l2.prefetcher 47967.493506                       # average overall mshr miss latency
system.l2.overall_avg_mshr_miss_latency::total 59489.318036                       # average overall mshr miss latency
system.l2.no_allocate_misses                        0                       # Number of misses that were no-allocate
system.membus.trans_dist::ReadReq                 840                       # Transaction distribution
system.membus.trans_dist::ReadResp                839                       # Transaction distribution
system.membus.trans_dist::UpgradeReq                7                       # Transaction distribution
system.membus.trans_dist::SCUpgradeReq              4                       # Transaction distribution
system.membus.trans_dist::UpgradeResp               5                       # Transaction distribution
system.membus.trans_dist::ReadExReq                59                       # Transaction distribution
system.membus.trans_dist::ReadExResp               59                       # Transaction distribution
system.membus.pkt_count_system.l2.mem_side::system.mem_ctrls.port         1813                       # Packet count per connected master and slave (bytes)
system.membus.pkt_count::total                   1813                       # Packet count per connected master and slave (bytes)
system.membus.pkt_size_system.l2.mem_side::system.mem_ctrls.port        57472                       # Cumulative packet size per connected master and slave (bytes)
system.membus.pkt_size::total                   57472                       # Cumulative packet size per connected master and slave (bytes)
system.membus.snoops                                6                       # Total snoops (count)
system.membus.snoop_fanout::samples               910                       # Request fanout histogram
system.membus.snoop_fanout::mean                    0                       # Request fanout histogram
system.membus.snoop_fanout::stdev                   0                       # Request fanout histogram
system.membus.snoop_fanout::underflows              0      0.00%      0.00% # Request fanout histogram
system.membus.snoop_fanout::0                     910    100.00%    100.00% # Request fanout histogram
system.membus.snoop_fanout::1                       0      0.00%    100.00% # Request fanout histogram
system.membus.snoop_fanout::overflows               0      0.00%    100.00% # Request fanout histogram
system.membus.snoop_fanout::min_value               0                       # Request fanout histogram
system.membus.snoop_fanout::max_value               0                       # Request fanout histogram
system.membus.snoop_fanout::total                 910                       # Request fanout histogram
system.membus.reqLayer0.occupancy             1170558                       # Layer occupancy (ticks)
system.membus.reqLayer0.utilization               2.3                       # Layer utilization (%)
system.membus.respLayer1.occupancy            4758745                       # Layer occupancy (ticks)
system.membus.respLayer1.utilization              9.2                       # Layer utilization (%)
system.tol2bus.trans_dist::ReadReq                913                       # Transaction distribution
system.tol2bus.trans_dist::ReadResp               911                       # Transaction distribution
system.tol2bus.trans_dist::Writeback                9                       # Transaction distribution
system.tol2bus.trans_dist::HardPFReq              285                       # Transaction distribution
system.tol2bus.trans_dist::UpgradeReq               9                       # Transaction distribution
system.tol2bus.trans_dist::SCUpgradeReq             4                       # Transaction distribution
system.tol2bus.trans_dist::UpgradeResp             13                       # Transaction distribution
system.tol2bus.trans_dist::ReadExReq              254                       # Transaction distribution
system.tol2bus.trans_dist::ReadExResp             254                       # Transaction distribution
system.tol2bus.pkt_count_system.cpu0.icache.mem_side::system.l2.cpu_side         1234                       # Packet count per connected master and slave (bytes)
system.tol2bus.pkt_count_system.cpu0.dcache.mem_side::system.l2.cpu_side          811                       # Packet count per connected master and slave (bytes)
system.tol2bus.pkt_count_system.cpu1.icache.mem_side::system.l2.cpu_side          106                       # Packet count per connected master and slave (bytes)
system.tol2bus.pkt_count_system.cpu1.dcache.mem_side::system.l2.cpu_side          121                       # Packet count per connected master and slave (bytes)
system.tol2bus.pkt_count::total                  2272                       # Packet count per connected master and slave (bytes)
system.tol2bus.pkt_size_system.cpu0.icache.mem_side::system.l2.cpu_side        39424                       # Cumulative packet size per connected master and slave (bytes)
system.tol2bus.pkt_size_system.cpu0.dcache.mem_side::system.l2.cpu_side        25600                       # Cumulative packet size per connected master and slave (bytes)
system.tol2bus.pkt_size_system.cpu1.icache.mem_side::system.l2.cpu_side         3392                       # Cumulative packet size per connected master and slave (bytes)
system.tol2bus.pkt_size_system.cpu1.dcache.mem_side::system.l2.cpu_side         1024                       # Cumulative packet size per connected master and slave (bytes)
system.tol2bus.pkt_size::total                  69440                       # Cumulative packet size per connected master and slave (bytes)
system.tol2bus.snoops                             380                       # Total snoops (count)
system.tol2bus.snoop_fanout::samples             1474                       # Request fanout histogram
system.tol2bus.snoop_fanout::mean            3.193351                       # Request fanout histogram
system.tol2bus.snoop_fanout::stdev           0.395060                       # Request fanout histogram
system.tol2bus.snoop_fanout::underflows             0      0.00%      0.00% # Request fanout histogram
system.tol2bus.snoop_fanout::0                      0      0.00%      0.00% # Request fanout histogram
system.tol2bus.snoop_fanout::1                      0      0.00%      0.00% # Request fanout histogram
system.tol2bus.snoop_fanout::2                      0      0.00%      0.00% # Request fanout histogram
system.tol2bus.snoop_fanout::3                   1189     80.66%     80.66% # Request fanout histogram
system.tol2bus.snoop_fanout::4                    285     19.34%    100.00% # Request fanout histogram
system.tol2bus.snoop_fanout::overflows              0      0.00%    100.00% # Request fanout histogram
system.tol2bus.snoop_fanout::min_value              3                       # Request fanout histogram
system.tol2bus.snoop_fanout::max_value              4                       # Request fanout histogram
system.tol2bus.snoop_fanout::total               1474                       # Request fanout histogram
system.tol2bus.reqLayer0.occupancy             603999                       # Layer occupancy (ticks)
system.tol2bus.reqLayer0.utilization              1.2                       # Layer utilization (%)
system.tol2bus.respLayer0.occupancy           1029495                       # Layer occupancy (ticks)
system.tol2bus.respLayer0.utilization             2.0                       # Layer utilization (%)
system.tol2bus.respLayer1.occupancy            625991                       # Layer occupancy (ticks)
system.tol2bus.respLayer1.utilization             1.2                       # Layer utilization (%)
system.tol2bus.respLayer4.occupancy             83497                       # Layer occupancy (ticks)
system.tol2bus.respLayer4.utilization             0.2                       # Layer utilization (%)
system.tol2bus.respLayer5.occupancy            154250                       # Layer occupancy (ticks)
system.tol2bus.respLayer5.utilization             0.3                       # Layer utilization (%)

---------- End Simulation Statistics   ----------
