
---------- Begin Simulation Statistics ----------
sim_seconds                                  0.002974                       # Number of seconds simulated
sim_ticks                                  2974130500                       # Number of ticks simulated
final_tick                                 2974130500                       # Number of ticks from beginning of simulation (restored from checkpoints and never reset)
sim_freq                                 1000000000000                       # Frequency of simulated ticks
host_inst_rate                                 163854                       # Simulator instruction rate (inst/s)
host_op_rate                                   163965                       # Simulator op (including micro ops) rate (op/s)
host_tick_rate                               15212781                       # Simulator tick rate (ticks/s)
host_mem_usage                                 664612                       # Number of bytes of host memory used
host_seconds                                   195.50                       # Real time elapsed on the host
sim_insts                                    32033842                       # Number of instructions simulated
sim_ops                                      32055456                       # Number of ops (including micro ops) simulated
system.voltage_domain.voltage                       1                       # Voltage in Volts
system.clk_domain.clock                          1000                       # Clock period in ticks
system.mem_ctrls.bytes_read::cpu0.inst          34944                       # Number of bytes read from this memory
system.mem_ctrls.bytes_read::cpu0.data          48000                       # Number of bytes read from this memory
system.mem_ctrls.bytes_read::cpu1.inst            832                       # Number of bytes read from this memory
system.mem_ctrls.bytes_read::cpu1.data          33216                       # Number of bytes read from this memory
system.mem_ctrls.bytes_read::cpu2.inst            192                       # Number of bytes read from this memory
system.mem_ctrls.bytes_read::cpu2.data          33088                       # Number of bytes read from this memory
system.mem_ctrls.bytes_read::cpu3.inst            384                       # Number of bytes read from this memory
system.mem_ctrls.bytes_read::cpu3.data          33280                       # Number of bytes read from this memory
system.mem_ctrls.bytes_read::l2.prefetcher       266880                       # Number of bytes read from this memory
system.mem_ctrls.bytes_read::total             450816                       # Number of bytes read from this memory
system.mem_ctrls.bytes_inst_read::cpu0.inst        34944                       # Number of instructions bytes read from this memory
system.mem_ctrls.bytes_inst_read::cpu1.inst          832                       # Number of instructions bytes read from this memory
system.mem_ctrls.bytes_inst_read::cpu2.inst          192                       # Number of instructions bytes read from this memory
system.mem_ctrls.bytes_inst_read::cpu3.inst          384                       # Number of instructions bytes read from this memory
system.mem_ctrls.bytes_inst_read::total         36352                       # Number of instructions bytes read from this memory
system.mem_ctrls.num_reads::cpu0.inst             546                       # Number of read requests responded to by this memory
system.mem_ctrls.num_reads::cpu0.data             750                       # Number of read requests responded to by this memory
system.mem_ctrls.num_reads::cpu1.inst              13                       # Number of read requests responded to by this memory
system.mem_ctrls.num_reads::cpu1.data             519                       # Number of read requests responded to by this memory
system.mem_ctrls.num_reads::cpu2.inst               3                       # Number of read requests responded to by this memory
system.mem_ctrls.num_reads::cpu2.data             517                       # Number of read requests responded to by this memory
system.mem_ctrls.num_reads::cpu3.inst               6                       # Number of read requests responded to by this memory
system.mem_ctrls.num_reads::cpu3.data             520                       # Number of read requests responded to by this memory
system.mem_ctrls.num_reads::l2.prefetcher         4170                       # Number of read requests responded to by this memory
system.mem_ctrls.num_reads::total                7044                       # Number of read requests responded to by this memory
system.mem_ctrls.bw_read::cpu0.inst          11749316                       # Total read bandwidth from this memory (bytes/s)
system.mem_ctrls.bw_read::cpu0.data          16139171                       # Total read bandwidth from this memory (bytes/s)
system.mem_ctrls.bw_read::cpu1.inst            279746                       # Total read bandwidth from this memory (bytes/s)
system.mem_ctrls.bw_read::cpu1.data          11168306                       # Total read bandwidth from this memory (bytes/s)
system.mem_ctrls.bw_read::cpu2.inst             64557                       # Total read bandwidth from this memory (bytes/s)
system.mem_ctrls.bw_read::cpu2.data          11125268                       # Total read bandwidth from this memory (bytes/s)
system.mem_ctrls.bw_read::cpu3.inst            129113                       # Total read bandwidth from this memory (bytes/s)
system.mem_ctrls.bw_read::cpu3.data          11189825                       # Total read bandwidth from this memory (bytes/s)
system.mem_ctrls.bw_read::l2.prefetcher      89733789                       # Total read bandwidth from this memory (bytes/s)
system.mem_ctrls.bw_read::total             151579092                       # Total read bandwidth from this memory (bytes/s)
system.mem_ctrls.bw_inst_read::cpu0.inst     11749316                       # Instruction read bandwidth from this memory (bytes/s)
system.mem_ctrls.bw_inst_read::cpu1.inst       279746                       # Instruction read bandwidth from this memory (bytes/s)
system.mem_ctrls.bw_inst_read::cpu2.inst        64557                       # Instruction read bandwidth from this memory (bytes/s)
system.mem_ctrls.bw_inst_read::cpu3.inst       129113                       # Instruction read bandwidth from this memory (bytes/s)
system.mem_ctrls.bw_inst_read::total         12222732                       # Instruction read bandwidth from this memory (bytes/s)
system.mem_ctrls.bw_total::cpu0.inst         11749316                       # Total bandwidth to/from this memory (bytes/s)
system.mem_ctrls.bw_total::cpu0.data         16139171                       # Total bandwidth to/from this memory (bytes/s)
system.mem_ctrls.bw_total::cpu1.inst           279746                       # Total bandwidth to/from this memory (bytes/s)
system.mem_ctrls.bw_total::cpu1.data         11168306                       # Total bandwidth to/from this memory (bytes/s)
system.mem_ctrls.bw_total::cpu2.inst            64557                       # Total bandwidth to/from this memory (bytes/s)
system.mem_ctrls.bw_total::cpu2.data         11125268                       # Total bandwidth to/from this memory (bytes/s)
system.mem_ctrls.bw_total::cpu3.inst           129113                       # Total bandwidth to/from this memory (bytes/s)
system.mem_ctrls.bw_total::cpu3.data         11189825                       # Total bandwidth to/from this memory (bytes/s)
system.mem_ctrls.bw_total::l2.prefetcher     89733789                       # Total bandwidth to/from this memory (bytes/s)
system.mem_ctrls.bw_total::total            151579092                       # Total bandwidth to/from this memory (bytes/s)
system.mem_ctrls.readReqs                        7044                       # Number of read requests accepted
system.mem_ctrls.writeReqs                          0                       # Number of write requests accepted
system.mem_ctrls.readBursts                      7044                       # Number of DRAM read bursts, including those serviced by the write queue
system.mem_ctrls.writeBursts                        0                       # Number of DRAM write bursts, including those merged in the write queue
system.mem_ctrls.bytesReadDRAM                 450816                       # Total number of bytes read from DRAM
system.mem_ctrls.bytesReadWrQ                       0                       # Total number of bytes read from write queue
system.mem_ctrls.bytesWritten                       0                       # Total number of bytes written to DRAM
system.mem_ctrls.bytesReadSys                  450816                       # Total read bytes from the system interface side
system.mem_ctrls.bytesWrittenSys                    0                       # Total written bytes from the system interface side
system.mem_ctrls.servicedByWrQ                      0                       # Number of DRAM read bursts serviced by the write queue
system.mem_ctrls.mergedWrBursts                     0                       # Number of DRAM write bursts merged with an existing one
system.mem_ctrls.neitherReadNorWriteReqs            4                       # Number of requests that are neither read nor write
system.mem_ctrls.perBankRdBursts::0               516                       # Per bank write bursts
system.mem_ctrls.perBankRdBursts::1               508                       # Per bank write bursts
system.mem_ctrls.perBankRdBursts::2               522                       # Per bank write bursts
system.mem_ctrls.perBankRdBursts::3               482                       # Per bank write bursts
system.mem_ctrls.perBankRdBursts::4               453                       # Per bank write bursts
system.mem_ctrls.perBankRdBursts::5               423                       # Per bank write bursts
system.mem_ctrls.perBankRdBursts::6               483                       # Per bank write bursts
system.mem_ctrls.perBankRdBursts::7               413                       # Per bank write bursts
system.mem_ctrls.perBankRdBursts::8               400                       # Per bank write bursts
system.mem_ctrls.perBankRdBursts::9               392                       # Per bank write bursts
system.mem_ctrls.perBankRdBursts::10              384                       # Per bank write bursts
system.mem_ctrls.perBankRdBursts::11              397                       # Per bank write bursts
system.mem_ctrls.perBankRdBursts::12              389                       # Per bank write bursts
system.mem_ctrls.perBankRdBursts::13              418                       # Per bank write bursts
system.mem_ctrls.perBankRdBursts::14              422                       # Per bank write bursts
system.mem_ctrls.perBankRdBursts::15              442                       # Per bank write bursts
system.mem_ctrls.perBankWrBursts::0                 0                       # Per bank write bursts
system.mem_ctrls.perBankWrBursts::1                 0                       # Per bank write bursts
system.mem_ctrls.perBankWrBursts::2                 0                       # Per bank write bursts
system.mem_ctrls.perBankWrBursts::3                 0                       # Per bank write bursts
system.mem_ctrls.perBankWrBursts::4                 0                       # Per bank write bursts
system.mem_ctrls.perBankWrBursts::5                 0                       # Per bank write bursts
system.mem_ctrls.perBankWrBursts::6                 0                       # Per bank write bursts
system.mem_ctrls.perBankWrBursts::7                 0                       # Per bank write bursts
system.mem_ctrls.perBankWrBursts::8                 0                       # Per bank write bursts
system.mem_ctrls.perBankWrBursts::9                 0                       # Per bank write bursts
system.mem_ctrls.perBankWrBursts::10                0                       # Per bank write bursts
system.mem_ctrls.perBankWrBursts::11                0                       # Per bank write bursts
system.mem_ctrls.perBankWrBursts::12                0                       # Per bank write bursts
system.mem_ctrls.perBankWrBursts::13                0                       # Per bank write bursts
system.mem_ctrls.perBankWrBursts::14                0                       # Per bank write bursts
system.mem_ctrls.perBankWrBursts::15                0                       # Per bank write bursts
system.mem_ctrls.numRdRetry                         0                       # Number of times read queue was full causing retry
system.mem_ctrls.numWrRetry                         0                       # Number of times write queue was full causing retry
system.mem_ctrls.totGap                    2974091500                       # Total gap between requests
system.mem_ctrls.readPktSize::0                     0                       # Read request sizes (log2)
system.mem_ctrls.readPktSize::1                     0                       # Read request sizes (log2)
system.mem_ctrls.readPktSize::2                     0                       # Read request sizes (log2)
system.mem_ctrls.readPktSize::3                     0                       # Read request sizes (log2)
system.mem_ctrls.readPktSize::4                     0                       # Read request sizes (log2)
system.mem_ctrls.readPktSize::5                     0                       # Read request sizes (log2)
system.mem_ctrls.readPktSize::6                  7044                       # Read request sizes (log2)
system.mem_ctrls.writePktSize::0                    0                       # Write request sizes (log2)
system.mem_ctrls.writePktSize::1                    0                       # Write request sizes (log2)
system.mem_ctrls.writePktSize::2                    0                       # Write request sizes (log2)
system.mem_ctrls.writePktSize::3                    0                       # Write request sizes (log2)
system.mem_ctrls.writePktSize::4                    0                       # Write request sizes (log2)
system.mem_ctrls.writePktSize::5                    0                       # Write request sizes (log2)
system.mem_ctrls.writePktSize::6                    0                       # Write request sizes (log2)
system.mem_ctrls.rdQLenPdf::0                    2922                       # What read queue length does an incoming req see
system.mem_ctrls.rdQLenPdf::1                    2341                       # What read queue length does an incoming req see
system.mem_ctrls.rdQLenPdf::2                     746                       # What read queue length does an incoming req see
system.mem_ctrls.rdQLenPdf::3                     615                       # What read queue length does an incoming req see
system.mem_ctrls.rdQLenPdf::4                      89                       # What read queue length does an incoming req see
system.mem_ctrls.rdQLenPdf::5                      83                       # What read queue length does an incoming req see
system.mem_ctrls.rdQLenPdf::6                      81                       # What read queue length does an incoming req see
system.mem_ctrls.rdQLenPdf::7                      80                       # What read queue length does an incoming req see
system.mem_ctrls.rdQLenPdf::8                      80                       # What read queue length does an incoming req see
system.mem_ctrls.rdQLenPdf::9                       6                       # What read queue length does an incoming req see
system.mem_ctrls.rdQLenPdf::10                      1                       # What read queue length does an incoming req see
system.mem_ctrls.rdQLenPdf::11                      0                       # What read queue length does an incoming req see
system.mem_ctrls.rdQLenPdf::12                      0                       # What read queue length does an incoming req see
system.mem_ctrls.rdQLenPdf::13                      0                       # What read queue length does an incoming req see
system.mem_ctrls.rdQLenPdf::14                      0                       # What read queue length does an incoming req see
system.mem_ctrls.rdQLenPdf::15                      0                       # What read queue length does an incoming req see
system.mem_ctrls.rdQLenPdf::16                      0                       # What read queue length does an incoming req see
system.mem_ctrls.rdQLenPdf::17                      0                       # What read queue length does an incoming req see
system.mem_ctrls.rdQLenPdf::18                      0                       # What read queue length does an incoming req see
system.mem_ctrls.rdQLenPdf::19                      0                       # What read queue length does an incoming req see
system.mem_ctrls.rdQLenPdf::20                      0                       # What read queue length does an incoming req see
system.mem_ctrls.rdQLenPdf::21                      0                       # What read queue length does an incoming req see
system.mem_ctrls.rdQLenPdf::22                      0                       # What read queue length does an incoming req see
system.mem_ctrls.rdQLenPdf::23                      0                       # What read queue length does an incoming req see
system.mem_ctrls.rdQLenPdf::24                      0                       # What read queue length does an incoming req see
system.mem_ctrls.rdQLenPdf::25                      0                       # What read queue length does an incoming req see
system.mem_ctrls.rdQLenPdf::26                      0                       # What read queue length does an incoming req see
system.mem_ctrls.rdQLenPdf::27                      0                       # What read queue length does an incoming req see
system.mem_ctrls.rdQLenPdf::28                      0                       # What read queue length does an incoming req see
system.mem_ctrls.rdQLenPdf::29                      0                       # What read queue length does an incoming req see
system.mem_ctrls.rdQLenPdf::30                      0                       # What read queue length does an incoming req see
system.mem_ctrls.rdQLenPdf::31                      0                       # What read queue length does an incoming req see
system.mem_ctrls.wrQLenPdf::0                       0                       # What write queue length does an incoming req see
system.mem_ctrls.wrQLenPdf::1                       0                       # What write queue length does an incoming req see
system.mem_ctrls.wrQLenPdf::2                       0                       # What write queue length does an incoming req see
system.mem_ctrls.wrQLenPdf::3                       0                       # What write queue length does an incoming req see
system.mem_ctrls.wrQLenPdf::4                       0                       # What write queue length does an incoming req see
system.mem_ctrls.wrQLenPdf::5                       0                       # What write queue length does an incoming req see
system.mem_ctrls.wrQLenPdf::6                       0                       # What write queue length does an incoming req see
system.mem_ctrls.wrQLenPdf::7                       0                       # What write queue length does an incoming req see
system.mem_ctrls.wrQLenPdf::8                       0                       # What write queue length does an incoming req see
system.mem_ctrls.wrQLenPdf::9                       0                       # What write queue length does an incoming req see
system.mem_ctrls.wrQLenPdf::10                      0                       # What write queue length does an incoming req see
system.mem_ctrls.wrQLenPdf::11                      0                       # What write queue length does an incoming req see
system.mem_ctrls.wrQLenPdf::12                      0                       # What write queue length does an incoming req see
system.mem_ctrls.wrQLenPdf::13                      0                       # What write queue length does an incoming req see
system.mem_ctrls.wrQLenPdf::14                      0                       # What write queue length does an incoming req see
system.mem_ctrls.wrQLenPdf::15                      0                       # What write queue length does an incoming req see
system.mem_ctrls.wrQLenPdf::16                      0                       # What write queue length does an incoming req see
system.mem_ctrls.wrQLenPdf::17                      0                       # What write queue length does an incoming req see
system.mem_ctrls.wrQLenPdf::18                      0                       # What write queue length does an incoming req see
system.mem_ctrls.wrQLenPdf::19                      0                       # What write queue length does an incoming req see
system.mem_ctrls.wrQLenPdf::20                      0                       # What write queue length does an incoming req see
system.mem_ctrls.wrQLenPdf::21                      0                       # What write queue length does an incoming req see
system.mem_ctrls.wrQLenPdf::22                      0                       # What write queue length does an incoming req see
system.mem_ctrls.wrQLenPdf::23                      0                       # What write queue length does an incoming req see
system.mem_ctrls.wrQLenPdf::24                      0                       # What write queue length does an incoming req see
system.mem_ctrls.wrQLenPdf::25                      0                       # What write queue length does an incoming req see
system.mem_ctrls.wrQLenPdf::26                      0                       # What write queue length does an incoming req see
system.mem_ctrls.wrQLenPdf::27                      0                       # What write queue length does an incoming req see
system.mem_ctrls.wrQLenPdf::28                      0                       # What write queue length does an incoming req see
system.mem_ctrls.wrQLenPdf::29                      0                       # What write queue length does an incoming req see
system.mem_ctrls.wrQLenPdf::30                      0                       # What write queue length does an incoming req see
system.mem_ctrls.wrQLenPdf::31                      0                       # What write queue length does an incoming req see
system.mem_ctrls.wrQLenPdf::32                      0                       # What write queue length does an incoming req see
system.mem_ctrls.wrQLenPdf::33                      0                       # What write queue length does an incoming req see
system.mem_ctrls.wrQLenPdf::34                      0                       # What write queue length does an incoming req see
system.mem_ctrls.wrQLenPdf::35                      0                       # What write queue length does an incoming req see
system.mem_ctrls.wrQLenPdf::36                      0                       # What write queue length does an incoming req see
system.mem_ctrls.wrQLenPdf::37                      0                       # What write queue length does an incoming req see
system.mem_ctrls.wrQLenPdf::38                      0                       # What write queue length does an incoming req see
system.mem_ctrls.wrQLenPdf::39                      0                       # What write queue length does an incoming req see
system.mem_ctrls.wrQLenPdf::40                      0                       # What write queue length does an incoming req see
system.mem_ctrls.wrQLenPdf::41                      0                       # What write queue length does an incoming req see
system.mem_ctrls.wrQLenPdf::42                      0                       # What write queue length does an incoming req see
system.mem_ctrls.wrQLenPdf::43                      0                       # What write queue length does an incoming req see
system.mem_ctrls.wrQLenPdf::44                      0                       # What write queue length does an incoming req see
system.mem_ctrls.wrQLenPdf::45                      0                       # What write queue length does an incoming req see
system.mem_ctrls.wrQLenPdf::46                      0                       # What write queue length does an incoming req see
system.mem_ctrls.wrQLenPdf::47                      0                       # What write queue length does an incoming req see
system.mem_ctrls.wrQLenPdf::48                      0                       # What write queue length does an incoming req see
system.mem_ctrls.wrQLenPdf::49                      0                       # What write queue length does an incoming req see
system.mem_ctrls.wrQLenPdf::50                      0                       # What write queue length does an incoming req see
system.mem_ctrls.wrQLenPdf::51                      0                       # What write queue length does an incoming req see
system.mem_ctrls.wrQLenPdf::52                      0                       # What write queue length does an incoming req see
system.mem_ctrls.wrQLenPdf::53                      0                       # What write queue length does an incoming req see
system.mem_ctrls.wrQLenPdf::54                      0                       # What write queue length does an incoming req see
system.mem_ctrls.wrQLenPdf::55                      0                       # What write queue length does an incoming req see
system.mem_ctrls.wrQLenPdf::56                      0                       # What write queue length does an incoming req see
system.mem_ctrls.wrQLenPdf::57                      0                       # What write queue length does an incoming req see
system.mem_ctrls.wrQLenPdf::58                      0                       # What write queue length does an incoming req see
system.mem_ctrls.wrQLenPdf::59                      0                       # What write queue length does an incoming req see
system.mem_ctrls.wrQLenPdf::60                      0                       # What write queue length does an incoming req see
system.mem_ctrls.wrQLenPdf::61                      0                       # What write queue length does an incoming req see
system.mem_ctrls.wrQLenPdf::62                      0                       # What write queue length does an incoming req see
system.mem_ctrls.wrQLenPdf::63                      0                       # What write queue length does an incoming req see
system.mem_ctrls.bytesPerActivate::samples         1962                       # Bytes accessed per row activation
system.mem_ctrls.bytesPerActivate::mean    228.860347                       # Bytes accessed per row activation
system.mem_ctrls.bytesPerActivate::gmean   124.902360                       # Bytes accessed per row activation
system.mem_ctrls.bytesPerActivate::stdev   324.942745                       # Bytes accessed per row activation
system.mem_ctrls.bytesPerActivate::0-127          994     50.66%     50.66% # Bytes accessed per row activation
system.mem_ctrls.bytesPerActivate::128-255          634     32.31%     82.98% # Bytes accessed per row activation
system.mem_ctrls.bytesPerActivate::256-383           29      1.48%     84.45% # Bytes accessed per row activation
system.mem_ctrls.bytesPerActivate::384-511           12      0.61%     85.07% # Bytes accessed per row activation
system.mem_ctrls.bytesPerActivate::512-639           12      0.61%     85.68% # Bytes accessed per row activation
system.mem_ctrls.bytesPerActivate::640-767            7      0.36%     86.03% # Bytes accessed per row activation
system.mem_ctrls.bytesPerActivate::768-895            6      0.31%     86.34% # Bytes accessed per row activation
system.mem_ctrls.bytesPerActivate::896-1023            5      0.25%     86.60% # Bytes accessed per row activation
system.mem_ctrls.bytesPerActivate::1024-1151          263     13.40%    100.00% # Bytes accessed per row activation
system.mem_ctrls.bytesPerActivate::total         1962                       # Bytes accessed per row activation
system.mem_ctrls.totQLat                     98870172                       # Total ticks spent queuing
system.mem_ctrls.totMemAccLat               230945172                       # Total ticks spent from burst creation until serviced by the DRAM
system.mem_ctrls.totBusLat                   35220000                       # Total ticks spent in databus transfers
system.mem_ctrls.avgQLat                     14036.08                       # Average queueing delay per DRAM burst
system.mem_ctrls.avgBusLat                    5000.00                       # Average bus latency per DRAM burst
system.mem_ctrls.avgMemAccLat                32786.08                       # Average memory access latency per DRAM burst
system.mem_ctrls.avgRdBW                       151.58                       # Average DRAM read bandwidth in MiByte/s
system.mem_ctrls.avgWrBW                         0.00                       # Average achieved write bandwidth in MiByte/s
system.mem_ctrls.avgRdBWSys                    151.58                       # Average system read bandwidth in MiByte/s
system.mem_ctrls.avgWrBWSys                      0.00                       # Average system write bandwidth in MiByte/s
system.mem_ctrls.peakBW                      12800.00                       # Theoretical peak bandwidth in MiByte/s
system.mem_ctrls.busUtil                         1.18                       # Data bus utilization in percentage
system.mem_ctrls.busUtilRead                     1.18                       # Data bus utilization in percentage for reads
system.mem_ctrls.busUtilWrite                    0.00                       # Data bus utilization in percentage for writes
system.mem_ctrls.avgRdQLen                       3.91                       # Average read queue length when enqueuing
system.mem_ctrls.avgWrQLen                       0.00                       # Average write queue length when enqueuing
system.mem_ctrls.readRowHits                     5072                       # Number of row buffer hits during reads
system.mem_ctrls.writeRowHits                       0                       # Number of row buffer hits during writes
system.mem_ctrls.readRowHitRate                 72.00                       # Row buffer hit rate for reads
system.mem_ctrls.writeRowHitRate                  nan                       # Row buffer hit rate for writes
system.mem_ctrls.avgGap                     422216.28                       # Average gap between requests
system.mem_ctrls.pageHitRate                    72.00                       # Row buffer hit rate, read and write combined
system.mem_ctrls_0.actEnergy                  7953120                       # Energy for activate commands per rank (pJ)
system.mem_ctrls_0.preEnergy                  4339500                       # Energy for precharge commands per rank (pJ)
system.mem_ctrls_0.readEnergy                29468400                       # Energy for read commands per rank (pJ)
system.mem_ctrls_0.writeEnergy                      0                       # Energy for write commands per rank (pJ)
system.mem_ctrls_0.refreshEnergy            193761360                       # Energy for refresh commands per rank (pJ)
system.mem_ctrls_0.actBackEnergy           1378735380                       # Energy for active background per rank (pJ)
system.mem_ctrls_0.preBackEnergy            570675750                       # Energy for precharge background per rank (pJ)
system.mem_ctrls_0.totalEnergy             2184933510                       # Total energy per rank (pJ)
system.mem_ctrls_0.averagePower            736.456067                       # Core power per rank (mW)
system.mem_ctrls_0.memoryStateTime::IDLE    943705927                       # Time in different power states
system.mem_ctrls_0.memoryStateTime::REF      99060000                       # Time in different power states
system.mem_ctrls_0.memoryStateTime::PRE_PDN            0                       # Time in different power states
system.mem_ctrls_0.memoryStateTime::ACT    1927923073                       # Time in different power states
system.mem_ctrls_0.memoryStateTime::ACT_PDN            0                       # Time in different power states
system.mem_ctrls_1.actEnergy                  6819120                       # Energy for activate commands per rank (pJ)
system.mem_ctrls_1.preEnergy                  3720750                       # Energy for precharge commands per rank (pJ)
system.mem_ctrls_1.readEnergy                25006800                       # Energy for read commands per rank (pJ)
system.mem_ctrls_1.writeEnergy                      0                       # Energy for write commands per rank (pJ)
system.mem_ctrls_1.refreshEnergy            193761360                       # Energy for refresh commands per rank (pJ)
system.mem_ctrls_1.actBackEnergy           1382749605                       # Energy for active background per rank (pJ)
system.mem_ctrls_1.preBackEnergy            567154500                       # Energy for precharge background per rank (pJ)
system.mem_ctrls_1.totalEnergy             2179212135                       # Total energy per rank (pJ)
system.mem_ctrls_1.averagePower            734.527614                       # Core power per rank (mW)
system.mem_ctrls_1.memoryStateTime::IDLE    938270992                       # Time in different power states
system.mem_ctrls_1.memoryStateTime::REF      99060000                       # Time in different power states
system.mem_ctrls_1.memoryStateTime::PRE_PDN            0                       # Time in different power states
system.mem_ctrls_1.memoryStateTime::ACT    1933628508                       # Time in different power states
system.mem_ctrls_1.memoryStateTime::ACT_PDN            0                       # Time in different power states
system.cpu0.branchPred.lookups                 580004                       # Number of BP lookups
system.cpu0.branchPred.condPredicted           577641                       # Number of conditional branches predicted
system.cpu0.branchPred.condIncorrect             5701                       # Number of conditional branches incorrect
system.cpu0.branchPred.BTBLookups              574567                       # Number of BTB lookups
system.cpu0.branchPred.BTBHits                 573778                       # Number of BTB hits
system.cpu0.branchPred.BTBCorrect                   0                       # Number of correct BTB predictions (this stat may not work properly.
system.cpu0.branchPred.BTBHitPct            99.862679                       # BTB Hit Percentage
system.cpu0.branchPred.usedRAS                    775                       # Number of times the RAS was used to get a target.
system.cpu0.branchPred.RASInCorrect                 7                       # Number of incorrect RAS predictions.
system.cpu_voltage_domain.voltage                   1                       # Voltage in Volts
system.cpu_clk_domain.clock                       500                       # Clock period in ticks
system.cpu0.dstage2_mmu.stage2_tlb.walker.walks            0                       # Table walker walks requested
system.cpu0.dstage2_mmu.stage2_tlb.walker.walkRequestOrigin_Requested::Data            0                       # Table walker requests started/completed, data/inst
system.cpu0.dstage2_mmu.stage2_tlb.walker.walkRequestOrigin_Requested::Inst            0                       # Table walker requests started/completed, data/inst
system.cpu0.dstage2_mmu.stage2_tlb.walker.walkRequestOrigin_Requested::total            0                       # Table walker requests started/completed, data/inst
system.cpu0.dstage2_mmu.stage2_tlb.walker.walkRequestOrigin_Completed::Data            0                       # Table walker requests started/completed, data/inst
system.cpu0.dstage2_mmu.stage2_tlb.walker.walkRequestOrigin_Completed::Inst            0                       # Table walker requests started/completed, data/inst
system.cpu0.dstage2_mmu.stage2_tlb.walker.walkRequestOrigin_Completed::total            0                       # Table walker requests started/completed, data/inst
system.cpu0.dstage2_mmu.stage2_tlb.walker.walkRequestOrigin::total            0                       # Table walker requests started/completed, data/inst
system.cpu0.dstage2_mmu.stage2_tlb.inst_hits            0                       # ITB inst hits
system.cpu0.dstage2_mmu.stage2_tlb.inst_misses            0                       # ITB inst misses
system.cpu0.dstage2_mmu.stage2_tlb.read_hits            0                       # DTB read hits
system.cpu0.dstage2_mmu.stage2_tlb.read_misses            0                       # DTB read misses
system.cpu0.dstage2_mmu.stage2_tlb.write_hits            0                       # DTB write hits
system.cpu0.dstage2_mmu.stage2_tlb.write_misses            0                       # DTB write misses
system.cpu0.dstage2_mmu.stage2_tlb.flush_tlb            0                       # Number of times complete TLB was flushed
system.cpu0.dstage2_mmu.stage2_tlb.flush_tlb_mva            0                       # Number of times TLB was flushed by MVA
system.cpu0.dstage2_mmu.stage2_tlb.flush_tlb_mva_asid            0                       # Number of times TLB was flushed by MVA & ASID
system.cpu0.dstage2_mmu.stage2_tlb.flush_tlb_asid            0                       # Number of times TLB was flushed by ASID
system.cpu0.dstage2_mmu.stage2_tlb.flush_entries            0                       # Number of entries that have been flushed from TLB
system.cpu0.dstage2_mmu.stage2_tlb.align_faults            0                       # Number of TLB faults due to alignment restrictions
system.cpu0.dstage2_mmu.stage2_tlb.prefetch_faults            0                       # Number of TLB faults due to prefetch
system.cpu0.dstage2_mmu.stage2_tlb.domain_faults            0                       # Number of TLB faults due to domain restrictions
system.cpu0.dstage2_mmu.stage2_tlb.perms_faults            0                       # Number of TLB faults due to permissions restrictions
system.cpu0.dstage2_mmu.stage2_tlb.read_accesses            0                       # DTB read accesses
system.cpu0.dstage2_mmu.stage2_tlb.write_accesses            0                       # DTB write accesses
system.cpu0.dstage2_mmu.stage2_tlb.inst_accesses            0                       # ITB inst accesses
system.cpu0.dstage2_mmu.stage2_tlb.hits             0                       # DTB hits
system.cpu0.dstage2_mmu.stage2_tlb.misses            0                       # DTB misses
system.cpu0.dstage2_mmu.stage2_tlb.accesses            0                       # DTB accesses
system.cpu0.dtb.walker.walks                        0                       # Table walker walks requested
system.cpu0.dtb.walker.walkRequestOrigin_Requested::Data            0                       # Table walker requests started/completed, data/inst
system.cpu0.dtb.walker.walkRequestOrigin_Requested::Inst            0                       # Table walker requests started/completed, data/inst
system.cpu0.dtb.walker.walkRequestOrigin_Requested::total            0                       # Table walker requests started/completed, data/inst
system.cpu0.dtb.walker.walkRequestOrigin_Completed::Data            0                       # Table walker requests started/completed, data/inst
system.cpu0.dtb.walker.walkRequestOrigin_Completed::Inst            0                       # Table walker requests started/completed, data/inst
system.cpu0.dtb.walker.walkRequestOrigin_Completed::total            0                       # Table walker requests started/completed, data/inst
system.cpu0.dtb.walker.walkRequestOrigin::total            0                       # Table walker requests started/completed, data/inst
system.cpu0.dtb.inst_hits                           0                       # ITB inst hits
system.cpu0.dtb.inst_misses                         0                       # ITB inst misses
system.cpu0.dtb.read_hits                           0                       # DTB read hits
system.cpu0.dtb.read_misses                         0                       # DTB read misses
system.cpu0.dtb.write_hits                          0                       # DTB write hits
system.cpu0.dtb.write_misses                        0                       # DTB write misses
system.cpu0.dtb.flush_tlb                           0                       # Number of times complete TLB was flushed
system.cpu0.dtb.flush_tlb_mva                       0                       # Number of times TLB was flushed by MVA
system.cpu0.dtb.flush_tlb_mva_asid                  0                       # Number of times TLB was flushed by MVA & ASID
system.cpu0.dtb.flush_tlb_asid                      0                       # Number of times TLB was flushed by ASID
system.cpu0.dtb.flush_entries                       0                       # Number of entries that have been flushed from TLB
system.cpu0.dtb.align_faults                        0                       # Number of TLB faults due to alignment restrictions
system.cpu0.dtb.prefetch_faults                     0                       # Number of TLB faults due to prefetch
system.cpu0.dtb.domain_faults                       0                       # Number of TLB faults due to domain restrictions
system.cpu0.dtb.perms_faults                        0                       # Number of TLB faults due to permissions restrictions
system.cpu0.dtb.read_accesses                       0                       # DTB read accesses
system.cpu0.dtb.write_accesses                      0                       # DTB write accesses
system.cpu0.dtb.inst_accesses                       0                       # ITB inst accesses
system.cpu0.dtb.hits                                0                       # DTB hits
system.cpu0.dtb.misses                              0                       # DTB misses
system.cpu0.dtb.accesses                            0                       # DTB accesses
system.cpu0.istage2_mmu.stage2_tlb.walker.walks            0                       # Table walker walks requested
system.cpu0.istage2_mmu.stage2_tlb.walker.walkRequestOrigin_Requested::Data            0                       # Table walker requests started/completed, data/inst
system.cpu0.istage2_mmu.stage2_tlb.walker.walkRequestOrigin_Requested::Inst            0                       # Table walker requests started/completed, data/inst
system.cpu0.istage2_mmu.stage2_tlb.walker.walkRequestOrigin_Requested::total            0                       # Table walker requests started/completed, data/inst
system.cpu0.istage2_mmu.stage2_tlb.walker.walkRequestOrigin_Completed::Data            0                       # Table walker requests started/completed, data/inst
system.cpu0.istage2_mmu.stage2_tlb.walker.walkRequestOrigin_Completed::Inst            0                       # Table walker requests started/completed, data/inst
system.cpu0.istage2_mmu.stage2_tlb.walker.walkRequestOrigin_Completed::total            0                       # Table walker requests started/completed, data/inst
system.cpu0.istage2_mmu.stage2_tlb.walker.walkRequestOrigin::total            0                       # Table walker requests started/completed, data/inst
system.cpu0.istage2_mmu.stage2_tlb.inst_hits            0                       # ITB inst hits
system.cpu0.istage2_mmu.stage2_tlb.inst_misses            0                       # ITB inst misses
system.cpu0.istage2_mmu.stage2_tlb.read_hits            0                       # DTB read hits
system.cpu0.istage2_mmu.stage2_tlb.read_misses            0                       # DTB read misses
system.cpu0.istage2_mmu.stage2_tlb.write_hits            0                       # DTB write hits
system.cpu0.istage2_mmu.stage2_tlb.write_misses            0                       # DTB write misses
system.cpu0.istage2_mmu.stage2_tlb.flush_tlb            0                       # Number of times complete TLB was flushed
system.cpu0.istage2_mmu.stage2_tlb.flush_tlb_mva            0                       # Number of times TLB was flushed by MVA
system.cpu0.istage2_mmu.stage2_tlb.flush_tlb_mva_asid            0                       # Number of times TLB was flushed by MVA & ASID
system.cpu0.istage2_mmu.stage2_tlb.flush_tlb_asid            0                       # Number of times TLB was flushed by ASID
system.cpu0.istage2_mmu.stage2_tlb.flush_entries            0                       # Number of entries that have been flushed from TLB
system.cpu0.istage2_mmu.stage2_tlb.align_faults            0                       # Number of TLB faults due to alignment restrictions
system.cpu0.istage2_mmu.stage2_tlb.prefetch_faults            0                       # Number of TLB faults due to prefetch
system.cpu0.istage2_mmu.stage2_tlb.domain_faults            0                       # Number of TLB faults due to domain restrictions
system.cpu0.istage2_mmu.stage2_tlb.perms_faults            0                       # Number of TLB faults due to permissions restrictions
system.cpu0.istage2_mmu.stage2_tlb.read_accesses            0                       # DTB read accesses
system.cpu0.istage2_mmu.stage2_tlb.write_accesses            0                       # DTB write accesses
system.cpu0.istage2_mmu.stage2_tlb.inst_accesses            0                       # ITB inst accesses
system.cpu0.istage2_mmu.stage2_tlb.hits             0                       # DTB hits
system.cpu0.istage2_mmu.stage2_tlb.misses            0                       # DTB misses
system.cpu0.istage2_mmu.stage2_tlb.accesses            0                       # DTB accesses
system.cpu0.itb.walker.walks                        0                       # Table walker walks requested
system.cpu0.itb.walker.walkRequestOrigin_Requested::Data            0                       # Table walker requests started/completed, data/inst
system.cpu0.itb.walker.walkRequestOrigin_Requested::Inst            0                       # Table walker requests started/completed, data/inst
system.cpu0.itb.walker.walkRequestOrigin_Requested::total            0                       # Table walker requests started/completed, data/inst
system.cpu0.itb.walker.walkRequestOrigin_Completed::Data            0                       # Table walker requests started/completed, data/inst
system.cpu0.itb.walker.walkRequestOrigin_Completed::Inst            0                       # Table walker requests started/completed, data/inst
system.cpu0.itb.walker.walkRequestOrigin_Completed::total            0                       # Table walker requests started/completed, data/inst
system.cpu0.itb.walker.walkRequestOrigin::total            0                       # Table walker requests started/completed, data/inst
system.cpu0.itb.inst_hits                           0                       # ITB inst hits
system.cpu0.itb.inst_misses                         0                       # ITB inst misses
system.cpu0.itb.read_hits                           0                       # DTB read hits
system.cpu0.itb.read_misses                         0                       # DTB read misses
system.cpu0.itb.write_hits                          0                       # DTB write hits
system.cpu0.itb.write_misses                        0                       # DTB write misses
system.cpu0.itb.flush_tlb                           0                       # Number of times complete TLB was flushed
system.cpu0.itb.flush_tlb_mva                       0                       # Number of times TLB was flushed by MVA
system.cpu0.itb.flush_tlb_mva_asid                  0                       # Number of times TLB was flushed by MVA & ASID
system.cpu0.itb.flush_tlb_asid                      0                       # Number of times TLB was flushed by ASID
system.cpu0.itb.flush_entries                       0                       # Number of entries that have been flushed from TLB
system.cpu0.itb.align_faults                        0                       # Number of TLB faults due to alignment restrictions
system.cpu0.itb.prefetch_faults                     0                       # Number of TLB faults due to prefetch
system.cpu0.itb.domain_faults                       0                       # Number of TLB faults due to domain restrictions
system.cpu0.itb.perms_faults                        0                       # Number of TLB faults due to permissions restrictions
system.cpu0.itb.read_accesses                       0                       # DTB read accesses
system.cpu0.itb.write_accesses                      0                       # DTB write accesses
system.cpu0.itb.inst_accesses                       0                       # ITB inst accesses
system.cpu0.itb.hits                                0                       # DTB hits
system.cpu0.itb.misses                              0                       # DTB misses
system.cpu0.itb.accesses                            0                       # DTB accesses
system.cpu0.workload.num_syscalls                  61                       # Number of system calls
system.cpu0.numCycles                         5948262                       # number of cpu cycles simulated
system.cpu0.numWorkItemsStarted                     0                       # number of work items this cpu started
system.cpu0.numWorkItemsCompleted                   0                       # number of work items this cpu completed
system.cpu0.fetch.icacheStallCycles             18764                       # Number of cycles fetch is stalled on an Icache miss
system.cpu0.fetch.Insts                       8468914                       # Number of instructions fetch has processed
system.cpu0.fetch.Branches                     580004                       # Number of branches that fetch encountered
system.cpu0.fetch.predictedBranches            574553                       # Number of branches that fetch has predicted taken
system.cpu0.fetch.Cycles                      5880524                       # Number of cycles fetch has run and was not squashing or blocked
system.cpu0.fetch.SquashCycles                  11479                       # Number of cycles fetch has spent squashing
system.cpu0.fetch.MiscStallCycles                 351                       # Number of cycles fetch has spent waiting on interrupts, or bad addresses, or out of MSHRs
system.cpu0.fetch.PendingTrapStallCycles          109                       # Number of stall cycles due to pending traps
system.cpu0.fetch.IcacheWaitRetryStallCycles          657                       # Number of stall cycles due to full MSHR
system.cpu0.fetch.CacheLines                  2276803                       # Number of cache lines fetched
system.cpu0.fetch.IcacheSquashes                  370                       # Number of outstanding Icache misses that were squashed
system.cpu0.fetch.rateDist::samples           5906144                       # Number of instructions fetched each cycle (Total)
system.cpu0.fetch.rateDist::mean             1.435884                       # Number of instructions fetched each cycle (Total)
system.cpu0.fetch.rateDist::stdev            1.261912                       # Number of instructions fetched each cycle (Total)
system.cpu0.fetch.rateDist::underflows              0      0.00%      0.00% # Number of instructions fetched each cycle (Total)
system.cpu0.fetch.rateDist::0                 1874837     31.74%     31.74% # Number of instructions fetched each cycle (Total)
system.cpu0.fetch.rateDist::1                 1683646     28.51%     60.25% # Number of instructions fetched each cycle (Total)
system.cpu0.fetch.rateDist::2                  246089      4.17%     64.42% # Number of instructions fetched each cycle (Total)
system.cpu0.fetch.rateDist::3                 2101572     35.58%    100.00% # Number of instructions fetched each cycle (Total)
system.cpu0.fetch.rateDist::overflows               0      0.00%    100.00% # Number of instructions fetched each cycle (Total)
system.cpu0.fetch.rateDist::min_value               0                       # Number of instructions fetched each cycle (Total)
system.cpu0.fetch.rateDist::max_value               3                       # Number of instructions fetched each cycle (Total)
system.cpu0.fetch.rateDist::total             5906144                       # Number of instructions fetched each cycle (Total)
system.cpu0.fetch.branchRate                 0.097508                       # Number of branch fetches per cycle
system.cpu0.fetch.rate                       1.423763                       # Number of inst fetches per cycle
system.cpu0.decode.IdleCycles                  724247                       # Number of cycles decode is idle
system.cpu0.decode.BlockedCycles              2323545                       # Number of cycles decode is blocked
system.cpu0.decode.RunCycles                  1786270                       # Number of cycles decode is running
system.cpu0.decode.UnblockCycles              1066681                       # Number of cycles decode is unblocking
system.cpu0.decode.SquashCycles                  5401                       # Number of cycles decode is squashing
system.cpu0.decode.BranchResolved                 967                       # Number of times decode resolved a branch
system.cpu0.decode.BranchMispred                  354                       # Number of times decode detected a branch misprediction
system.cpu0.decode.DecodedInsts               8331513                       # Number of instructions handled by decode
system.cpu0.decode.SquashedInsts                22073                       # Number of squashed instructions handled by decode
system.cpu0.rename.SquashCycles                  5401                       # Number of cycles rename is squashing
system.cpu0.rename.IdleCycles                 1311539                       # Number of cycles rename is idle
system.cpu0.rename.BlockCycles                 981982                       # Number of cycles rename is blocking
system.cpu0.rename.serializeStallCycles          7609                       # count of cycles rename stalled for serializing inst
system.cpu0.rename.RunCycles                  2149048                       # Number of cycles rename is running
system.cpu0.rename.UnblockCycles              1450565                       # Number of cycles rename is unblocking
system.cpu0.rename.RenamedInsts               8307454                       # Number of instructions processed by rename
system.cpu0.rename.SquashedInsts                 8950                       # Number of squashed instructions processed by rename
system.cpu0.rename.ROBFullEvents              1040220                       # Number of times rename has blocked due to ROB full
system.cpu0.rename.IQFullEvents                   417                       # Number of times rename has blocked due to IQ full
system.cpu0.rename.LQFullEvents                    12                       # Number of times rename has blocked due to LQ full
system.cpu0.rename.SQFullEvents                 14216                       # Number of times rename has blocked due to SQ full
system.cpu0.rename.RenamedOperands           10895375                       # Number of destination operands rename has renamed
system.cpu0.rename.RenameLookups             40933649                       # Number of register rename lookups that rename has made
system.cpu0.rename.int_rename_lookups        13792173                       # Number of integer rename lookups
system.cpu0.rename.fp_rename_lookups               22                       # Number of floating rename lookups
system.cpu0.rename.CommittedMaps             10849832                       # Number of HB maps that are committed
system.cpu0.rename.UndoneMaps                   45543                       # Number of HB maps that are undone due to squashing
system.cpu0.rename.serializingInsts               107                       # count of serializing insts renamed
system.cpu0.rename.tempSerializingInsts           105                       # count of temporary serializing insts renamed
system.cpu0.rename.skidInsts                  2451351                       # count of insts added to the skid buffer
system.cpu0.memDep0.insertedLoads             2129440                       # Number of loads inserted to the mem dependence unit.
system.cpu0.memDep0.insertedStores              82677                       # Number of stores inserted to the mem dependence unit.
system.cpu0.memDep0.conflictingLoads              276                       # Number of conflicting loads.
system.cpu0.memDep0.conflictingStores             118                       # Number of conflicting stores.
system.cpu0.iq.iqInstsAdded                   8297763                       # Number of instructions added to the IQ (excludes non-spec)
system.cpu0.iq.iqNonSpecInstsAdded                243                       # Number of non-speculative instructions added to the IQ
system.cpu0.iq.iqInstsIssued                  8290217                       # Number of instructions issued
system.cpu0.iq.iqSquashedInstsIssued             2122                       # Number of squashed instructions issued
system.cpu0.iq.iqSquashedInstsExamined          30185                       # Number of squashed instructions iterated over during squash; mainly for profiling
system.cpu0.iq.iqSquashedOperandsExamined        90477                       # Number of squashed operands that are examined and possibly removed from graph
system.cpu0.iq.iqSquashedNonSpecRemoved            51                       # Number of squashed non-spec instructions that were removed
system.cpu0.iq.issued_per_cycle::samples      5906144                       # Number of insts issued each cycle
system.cpu0.iq.issued_per_cycle::mean        1.403660                       # Number of insts issued each cycle
system.cpu0.iq.issued_per_cycle::stdev       1.045361                       # Number of insts issued each cycle
system.cpu0.iq.issued_per_cycle::underflows            0      0.00%      0.00% # Number of insts issued each cycle
system.cpu0.iq.issued_per_cycle::0            1178019     19.95%     19.95% # Number of insts issued each cycle
system.cpu0.iq.issued_per_cycle::1            2346093     39.72%     59.67% # Number of insts issued each cycle
system.cpu0.iq.issued_per_cycle::2            1359269     23.01%     82.68% # Number of insts issued each cycle
system.cpu0.iq.issued_per_cycle::3             866288     14.67%     97.35% # Number of insts issued each cycle
system.cpu0.iq.issued_per_cycle::4             155653      2.64%     99.99% # Number of insts issued each cycle
system.cpu0.iq.issued_per_cycle::5                822      0.01%    100.00% # Number of insts issued each cycle
system.cpu0.iq.issued_per_cycle::6                  0      0.00%    100.00% # Number of insts issued each cycle
system.cpu0.iq.issued_per_cycle::7                  0      0.00%    100.00% # Number of insts issued each cycle
system.cpu0.iq.issued_per_cycle::8                  0      0.00%    100.00% # Number of insts issued each cycle
system.cpu0.iq.issued_per_cycle::overflows            0      0.00%    100.00% # Number of insts issued each cycle
system.cpu0.iq.issued_per_cycle::min_value            0                       # Number of insts issued each cycle
system.cpu0.iq.issued_per_cycle::max_value            5                       # Number of insts issued each cycle
system.cpu0.iq.issued_per_cycle::total        5906144                       # Number of insts issued each cycle
system.cpu0.iq.fu_full::No_OpClass                  0      0.00%      0.00% # attempts to use FU when none available
system.cpu0.iq.fu_full::IntAlu                 165229     14.60%     14.60% # attempts to use FU when none available
system.cpu0.iq.fu_full::IntMult                 42654      3.77%     18.37% # attempts to use FU when none available
system.cpu0.iq.fu_full::IntDiv                      0      0.00%     18.37% # attempts to use FU when none available
system.cpu0.iq.fu_full::FloatAdd                    0      0.00%     18.37% # attempts to use FU when none available
system.cpu0.iq.fu_full::FloatCmp                    0      0.00%     18.37% # attempts to use FU when none available
system.cpu0.iq.fu_full::FloatCvt                    0      0.00%     18.37% # attempts to use FU when none available
system.cpu0.iq.fu_full::FloatMult                   0      0.00%     18.37% # attempts to use FU when none available
system.cpu0.iq.fu_full::FloatDiv                    0      0.00%     18.37% # attempts to use FU when none available
system.cpu0.iq.fu_full::FloatSqrt                   0      0.00%     18.37% # attempts to use FU when none available
system.cpu0.iq.fu_full::SimdAdd                     0      0.00%     18.37% # attempts to use FU when none available
system.cpu0.iq.fu_full::SimdAddAcc                  0      0.00%     18.37% # attempts to use FU when none available
system.cpu0.iq.fu_full::SimdAlu                     0      0.00%     18.37% # attempts to use FU when none available
system.cpu0.iq.fu_full::SimdCmp                     0      0.00%     18.37% # attempts to use FU when none available
system.cpu0.iq.fu_full::SimdCvt                     0      0.00%     18.37% # attempts to use FU when none available
system.cpu0.iq.fu_full::SimdMisc                    0      0.00%     18.37% # attempts to use FU when none available
system.cpu0.iq.fu_full::SimdMult                    0      0.00%     18.37% # attempts to use FU when none available
system.cpu0.iq.fu_full::SimdMultAcc                 0      0.00%     18.37% # attempts to use FU when none available
system.cpu0.iq.fu_full::SimdShift                   0      0.00%     18.37% # attempts to use FU when none available
system.cpu0.iq.fu_full::SimdShiftAcc                0      0.00%     18.37% # attempts to use FU when none available
system.cpu0.iq.fu_full::SimdSqrt                    0      0.00%     18.37% # attempts to use FU when none available
system.cpu0.iq.fu_full::SimdFloatAdd                0      0.00%     18.37% # attempts to use FU when none available
system.cpu0.iq.fu_full::SimdFloatAlu                0      0.00%     18.37% # attempts to use FU when none available
system.cpu0.iq.fu_full::SimdFloatCmp                0      0.00%     18.37% # attempts to use FU when none available
system.cpu0.iq.fu_full::SimdFloatCvt                0      0.00%     18.37% # attempts to use FU when none available
system.cpu0.iq.fu_full::SimdFloatDiv                0      0.00%     18.37% # attempts to use FU when none available
system.cpu0.iq.fu_full::SimdFloatMisc               0      0.00%     18.37% # attempts to use FU when none available
system.cpu0.iq.fu_full::SimdFloatMult               0      0.00%     18.37% # attempts to use FU when none available
system.cpu0.iq.fu_full::SimdFloatMultAcc            0      0.00%     18.37% # attempts to use FU when none available
system.cpu0.iq.fu_full::SimdFloatSqrt               0      0.00%     18.37% # attempts to use FU when none available
system.cpu0.iq.fu_full::MemRead                919278     81.22%     99.59% # attempts to use FU when none available
system.cpu0.iq.fu_full::MemWrite                 4638      0.41%    100.00% # attempts to use FU when none available
system.cpu0.iq.fu_full::IprAccess                   0      0.00%    100.00% # attempts to use FU when none available
system.cpu0.iq.fu_full::InstPrefetch                0      0.00%    100.00% # attempts to use FU when none available
system.cpu0.iq.FU_type_0::No_OpClass                0      0.00%      0.00% # Type of FU issued
system.cpu0.iq.FU_type_0::IntAlu              4474854     53.98%     53.98% # Type of FU issued
system.cpu0.iq.FU_type_0::IntMult             1605919     19.37%     73.35% # Type of FU issued
system.cpu0.iq.FU_type_0::IntDiv                    0      0.00%     73.35% # Type of FU issued
system.cpu0.iq.FU_type_0::FloatAdd                  0      0.00%     73.35% # Type of FU issued
system.cpu0.iq.FU_type_0::FloatCmp                  0      0.00%     73.35% # Type of FU issued
system.cpu0.iq.FU_type_0::FloatCvt                  0      0.00%     73.35% # Type of FU issued
system.cpu0.iq.FU_type_0::FloatMult                 0      0.00%     73.35% # Type of FU issued
system.cpu0.iq.FU_type_0::FloatDiv                  0      0.00%     73.35% # Type of FU issued
system.cpu0.iq.FU_type_0::FloatSqrt                 0      0.00%     73.35% # Type of FU issued
system.cpu0.iq.FU_type_0::SimdAdd                   0      0.00%     73.35% # Type of FU issued
system.cpu0.iq.FU_type_0::SimdAddAcc                0      0.00%     73.35% # Type of FU issued
system.cpu0.iq.FU_type_0::SimdAlu                   0      0.00%     73.35% # Type of FU issued
system.cpu0.iq.FU_type_0::SimdCmp                   0      0.00%     73.35% # Type of FU issued
system.cpu0.iq.FU_type_0::SimdCvt                   0      0.00%     73.35% # Type of FU issued
system.cpu0.iq.FU_type_0::SimdMisc                  0      0.00%     73.35% # Type of FU issued
system.cpu0.iq.FU_type_0::SimdMult                  0      0.00%     73.35% # Type of FU issued
system.cpu0.iq.FU_type_0::SimdMultAcc               0      0.00%     73.35% # Type of FU issued
system.cpu0.iq.FU_type_0::SimdShift                 0      0.00%     73.35% # Type of FU issued
system.cpu0.iq.FU_type_0::SimdShiftAcc              0      0.00%     73.35% # Type of FU issued
system.cpu0.iq.FU_type_0::SimdSqrt                  0      0.00%     73.35% # Type of FU issued
system.cpu0.iq.FU_type_0::SimdFloatAdd              0      0.00%     73.35% # Type of FU issued
system.cpu0.iq.FU_type_0::SimdFloatAlu              0      0.00%     73.35% # Type of FU issued
system.cpu0.iq.FU_type_0::SimdFloatCmp              0      0.00%     73.35% # Type of FU issued
system.cpu0.iq.FU_type_0::SimdFloatCvt              0      0.00%     73.35% # Type of FU issued
system.cpu0.iq.FU_type_0::SimdFloatDiv              0      0.00%     73.35% # Type of FU issued
system.cpu0.iq.FU_type_0::SimdFloatMisc             3      0.00%     73.35% # Type of FU issued
system.cpu0.iq.FU_type_0::SimdFloatMult             0      0.00%     73.35% # Type of FU issued
system.cpu0.iq.FU_type_0::SimdFloatMultAcc            0      0.00%     73.35% # Type of FU issued
system.cpu0.iq.FU_type_0::SimdFloatSqrt             0      0.00%     73.35% # Type of FU issued
system.cpu0.iq.FU_type_0::MemRead             2127255     25.66%     99.01% # Type of FU issued
system.cpu0.iq.FU_type_0::MemWrite              82186      0.99%    100.00% # Type of FU issued
system.cpu0.iq.FU_type_0::IprAccess                 0      0.00%    100.00% # Type of FU issued
system.cpu0.iq.FU_type_0::InstPrefetch              0      0.00%    100.00% # Type of FU issued
system.cpu0.iq.FU_type_0::total               8290217                       # Type of FU issued
system.cpu0.iq.rate                          1.393721                       # Inst issue rate
system.cpu0.iq.fu_busy_cnt                    1131799                       # FU busy when requested
system.cpu0.iq.fu_busy_rate                  0.136522                       # FU busy rate (busy events/executed inst)
system.cpu0.iq.int_inst_queue_reads          23620420                       # Number of integer instruction queue reads
system.cpu0.iq.int_inst_queue_writes          8328183                       # Number of integer instruction queue writes
system.cpu0.iq.int_inst_queue_wakeup_accesses      8277053                       # Number of integer instruction queue wakeup accesses
system.cpu0.iq.fp_inst_queue_reads                 79                       # Number of floating instruction queue reads
system.cpu0.iq.fp_inst_queue_writes                28                       # Number of floating instruction queue writes
system.cpu0.iq.fp_inst_queue_wakeup_accesses           28                       # Number of floating instruction queue wakeup accesses
system.cpu0.iq.int_alu_accesses               9421965                       # Number of integer alu accesses
system.cpu0.iq.fp_alu_accesses                     51                       # Number of floating point alu accesses
system.cpu0.iew.lsq.thread0.forwLoads              80                       # Number of loads that had data forwarded from stores
system.cpu0.iew.lsq.thread0.invAddrLoads            0                       # Number of loads ignored due to an invalid address
system.cpu0.iew.lsq.thread0.squashedLoads        12511                       # Number of loads squashed
system.cpu0.iew.lsq.thread0.ignoredResponses            0                       # Number of memory responses ignored because the instruction is squashed
system.cpu0.iew.lsq.thread0.memOrderViolation           21                       # Number of memory ordering violations
system.cpu0.iew.lsq.thread0.squashedStores          920                       # Number of stores squashed
system.cpu0.iew.lsq.thread0.invAddrSwpfs            0                       # Number of software prefetches ignored due to an invalid address
system.cpu0.iew.lsq.thread0.blockedLoads            0                       # Number of blocked loads due to partial load-store forwarding
system.cpu0.iew.lsq.thread0.rescheduledLoads           11                       # Number of loads that were rescheduled
system.cpu0.iew.lsq.thread0.cacheBlocked          230                       # Number of times an access to memory failed due to the cache being blocked
system.cpu0.iew.iewIdleCycles                       0                       # Number of cycles IEW is idle
system.cpu0.iew.iewSquashCycles                  5401                       # Number of cycles IEW is squashing
system.cpu0.iew.iewBlockCycles                   1458                       # Number of cycles IEW is blocking
system.cpu0.iew.iewUnblockCycles                  158                       # Number of cycles IEW is unblocking
system.cpu0.iew.iewDispatchedInsts            8298021                       # Number of instructions dispatched to IQ
system.cpu0.iew.iewDispSquashedInsts                0                       # Number of squashed instructions skipped by dispatch
system.cpu0.iew.iewDispLoadInsts              2129440                       # Number of dispatched load instructions
system.cpu0.iew.iewDispStoreInsts               82677                       # Number of dispatched store instructions
system.cpu0.iew.iewDispNonSpecInsts               103                       # Number of dispatched non-speculative instructions
system.cpu0.iew.iewIQFullEvents                    20                       # Number of times the IQ has become full, causing a stall
system.cpu0.iew.iewLSQFullEvents                   13                       # Number of times the LSQ has become full, causing a stall
system.cpu0.iew.memOrderViolationEvents            21                       # Number of memory order violations
system.cpu0.iew.predictedTakenIncorrect          4419                       # Number of branches that were predicted taken incorrectly
system.cpu0.iew.predictedNotTakenIncorrect         1000                       # Number of branches that were predicted not taken incorrectly
system.cpu0.iew.branchMispredicts                5419                       # Number of branch mispredicts detected at execute
system.cpu0.iew.iewExecutedInsts              8280876                       # Number of executed instructions
system.cpu0.iew.iewExecLoadInsts              2121208                       # Number of load instructions executed
system.cpu0.iew.iewExecSquashedInsts             9341                       # Number of squashed instructions skipped in execute
system.cpu0.iew.exec_swp                            0                       # number of swp insts executed
system.cpu0.iew.exec_nop                           15                       # number of nop insts executed
system.cpu0.iew.exec_refs                     2203220                       # number of memory reference insts executed
system.cpu0.iew.exec_branches                  565389                       # Number of branches executed
system.cpu0.iew.exec_stores                     82012                       # Number of stores executed
system.cpu0.iew.exec_rate                    1.392151                       # Inst execution rate
system.cpu0.iew.wb_sent                       8277197                       # cumulative count of insts sent to commit
system.cpu0.iew.wb_count                      8277081                       # cumulative count of insts written-back
system.cpu0.iew.wb_producers                  5717018                       # num instructions producing a value
system.cpu0.iew.wb_consumers                  7617378                       # num instructions consuming a value
system.cpu0.iew.wb_penalized                        0                       # number of instrctions required to write to 'other' IQ
system.cpu0.iew.wb_rate                      1.391513                       # insts written-back per cycle
system.cpu0.iew.wb_fanout                    0.750523                       # average fanout of values written-back
system.cpu0.iew.wb_penalized_rate                   0                       # fraction of instructions written-back that wrote to 'other' IQ
system.cpu0.commit.commitSquashedInsts          23570                       # The number of squashed insts skipped by commit
system.cpu0.commit.commitNonSpecStalls            192                       # The number of times commit has been forced to stall to communicate backwards
system.cpu0.commit.branchMispredicts             5363                       # The number of times a branch was mispredicted
system.cpu0.commit.committed_per_cycle::samples      5900231                       # Number of insts commited each cycle
system.cpu0.commit.committed_per_cycle::mean     1.401271                       # Number of insts commited each cycle
system.cpu0.commit.committed_per_cycle::stdev     1.963504                       # Number of insts commited each cycle
system.cpu0.commit.committed_per_cycle::underflows            0      0.00%      0.00% # Number of insts commited each cycle
system.cpu0.commit.committed_per_cycle::0      2642010     44.78%     44.78% # Number of insts commited each cycle
system.cpu0.commit.committed_per_cycle::1      1405499     23.82%     68.60% # Number of insts commited each cycle
system.cpu0.commit.committed_per_cycle::2       763738     12.94%     81.54% # Number of insts commited each cycle
system.cpu0.commit.committed_per_cycle::3       431202      7.31%     88.85% # Number of insts commited each cycle
system.cpu0.commit.committed_per_cycle::4         4865      0.08%     88.93% # Number of insts commited each cycle
system.cpu0.commit.committed_per_cycle::5       347384      5.89%     94.82% # Number of insts commited each cycle
system.cpu0.commit.committed_per_cycle::6        33070      0.56%     95.38% # Number of insts commited each cycle
system.cpu0.commit.committed_per_cycle::7        93264      1.58%     96.96% # Number of insts commited each cycle
system.cpu0.commit.committed_per_cycle::8       179199      3.04%    100.00% # Number of insts commited each cycle
system.cpu0.commit.committed_per_cycle::overflows            0      0.00%    100.00% # Number of insts commited each cycle
system.cpu0.commit.committed_per_cycle::min_value            0                       # Number of insts commited each cycle
system.cpu0.commit.committed_per_cycle::max_value            8                       # Number of insts commited each cycle
system.cpu0.commit.committed_per_cycle::total      5900231                       # Number of insts commited each cycle
system.cpu0.commit.committedInsts             8259827                       # Number of instructions committed
system.cpu0.commit.committedOps               8267821                       # Number of ops (including micro ops) committed
system.cpu0.commit.swp_count                        0                       # Number of s/w prefetches committed
system.cpu0.commit.refs                       2198686                       # Number of memory references committed
system.cpu0.commit.loads                      2116929                       # Number of loads committed
system.cpu0.commit.membars                        113                       # Number of memory barriers committed
system.cpu0.commit.branches                    564798                       # Number of branches committed
system.cpu0.commit.fp_insts                        28                       # Number of committed floating point instructions.
system.cpu0.commit.int_insts                  7703560                       # Number of committed integer instructions.
system.cpu0.commit.function_calls                 307                       # Number of function calls committed.
system.cpu0.commit.op_class_0::No_OpClass            0      0.00%      0.00% # Class of committed instruction
system.cpu0.commit.op_class_0::IntAlu         4463471     53.99%     53.99% # Class of committed instruction
system.cpu0.commit.op_class_0::IntMult        1605661     19.42%     73.41% # Class of committed instruction
system.cpu0.commit.op_class_0::IntDiv               0      0.00%     73.41% # Class of committed instruction
system.cpu0.commit.op_class_0::FloatAdd             0      0.00%     73.41% # Class of committed instruction
system.cpu0.commit.op_class_0::FloatCmp             0      0.00%     73.41% # Class of committed instruction
system.cpu0.commit.op_class_0::FloatCvt             0      0.00%     73.41% # Class of committed instruction
system.cpu0.commit.op_class_0::FloatMult            0      0.00%     73.41% # Class of committed instruction
system.cpu0.commit.op_class_0::FloatDiv             0      0.00%     73.41% # Class of committed instruction
system.cpu0.commit.op_class_0::FloatSqrt            0      0.00%     73.41% # Class of committed instruction
system.cpu0.commit.op_class_0::SimdAdd              0      0.00%     73.41% # Class of committed instruction
system.cpu0.commit.op_class_0::SimdAddAcc            0      0.00%     73.41% # Class of committed instruction
system.cpu0.commit.op_class_0::SimdAlu              0      0.00%     73.41% # Class of committed instruction
system.cpu0.commit.op_class_0::SimdCmp              0      0.00%     73.41% # Class of committed instruction
system.cpu0.commit.op_class_0::SimdCvt              0      0.00%     73.41% # Class of committed instruction
system.cpu0.commit.op_class_0::SimdMisc             0      0.00%     73.41% # Class of committed instruction
system.cpu0.commit.op_class_0::SimdMult             0      0.00%     73.41% # Class of committed instruction
system.cpu0.commit.op_class_0::SimdMultAcc            0      0.00%     73.41% # Class of committed instruction
system.cpu0.commit.op_class_0::SimdShift            0      0.00%     73.41% # Class of committed instruction
system.cpu0.commit.op_class_0::SimdShiftAcc            0      0.00%     73.41% # Class of committed instruction
system.cpu0.commit.op_class_0::SimdSqrt             0      0.00%     73.41% # Class of committed instruction
system.cpu0.commit.op_class_0::SimdFloatAdd            0      0.00%     73.41% # Class of committed instruction
system.cpu0.commit.op_class_0::SimdFloatAlu            0      0.00%     73.41% # Class of committed instruction
system.cpu0.commit.op_class_0::SimdFloatCmp            0      0.00%     73.41% # Class of committed instruction
system.cpu0.commit.op_class_0::SimdFloatCvt            0      0.00%     73.41% # Class of committed instruction
system.cpu0.commit.op_class_0::SimdFloatDiv            0      0.00%     73.41% # Class of committed instruction
system.cpu0.commit.op_class_0::SimdFloatMisc            3      0.00%     73.41% # Class of committed instruction
system.cpu0.commit.op_class_0::SimdFloatMult            0      0.00%     73.41% # Class of committed instruction
[...]
system.l2.overall_mshr_miss_latency::cpu3.data     40069500                       # number of overall MSHR miss cycles
system.l2.overall_mshr_miss_latency::l2.prefetcher    232954919                       # number of overall MSHR miss cycles
system.l2.overall_mshr_miss_latency::total    444356670                       # number of overall MSHR miss cycles
system.l2.ReadReq_mshr_miss_rate::cpu0.inst     0.826284                       # mshr miss rate for ReadReq accesses
system.l2.ReadReq_mshr_miss_rate::cpu0.data     0.000839                       # mshr miss rate for ReadReq accesses
system.l2.ReadReq_mshr_miss_rate::cpu1.inst     0.240741                       # mshr miss rate for ReadReq accesses
system.l2.ReadReq_mshr_miss_rate::cpu1.data     0.000021                       # mshr miss rate for ReadReq accesses
system.l2.ReadReq_mshr_miss_rate::cpu2.inst     0.055556                       # mshr miss rate for ReadReq accesses
system.l2.ReadReq_mshr_miss_rate::cpu2.data     0.000008                       # mshr miss rate for ReadReq accesses
system.l2.ReadReq_mshr_miss_rate::cpu3.inst     0.111111                       # mshr miss rate for ReadReq accesses
system.l2.ReadReq_mshr_miss_rate::cpu3.data     0.000022                       # mshr miss rate for ReadReq accesses
system.l2.ReadReq_mshr_miss_rate::total      0.001260                       # mshr miss rate for ReadReq accesses
system.l2.HardPFReq_mshr_miss_rate::l2.prefetcher          inf                       # mshr miss rate for HardPFReq accesses
system.l2.HardPFReq_mshr_miss_rate::total          inf                       # mshr miss rate for HardPFReq accesses
system.l2.UpgradeReq_mshr_miss_rate::cpu0.data     0.750000                       # mshr miss rate for UpgradeReq accesses
system.l2.UpgradeReq_mshr_miss_rate::total     0.750000                       # mshr miss rate for UpgradeReq accesses
system.l2.ReadExReq_mshr_miss_rate::cpu0.data     0.076481                       # mshr miss rate for ReadExReq accesses
system.l2.ReadExReq_mshr_miss_rate::cpu1.data     0.125854                       # mshr miss rate for ReadExReq accesses
system.l2.ReadExReq_mshr_miss_rate::cpu2.data     0.125854                       # mshr miss rate for ReadExReq accesses
system.l2.ReadExReq_mshr_miss_rate::cpu3.data     0.126098                       # mshr miss rate for ReadExReq accesses
system.l2.ReadExReq_mshr_miss_rate::total     0.105931                       # mshr miss rate for ReadExReq accesses
system.l2.demand_mshr_miss_rate::cpu0.inst     0.826284                       # mshr miss rate for demand accesses
system.l2.demand_mshr_miss_rate::cpu0.data     0.005297                       # mshr miss rate for demand accesses
system.l2.demand_mshr_miss_rate::cpu1.inst     0.240741                       # mshr miss rate for demand accesses
system.l2.demand_mshr_miss_rate::cpu1.data     0.003470                       # mshr miss rate for demand accesses
system.l2.demand_mshr_miss_rate::cpu2.inst     0.055556                       # mshr miss rate for demand accesses
system.l2.demand_mshr_miss_rate::cpu2.data     0.003928                       # mshr miss rate for demand accesses
system.l2.demand_mshr_miss_rate::cpu3.inst     0.111111                       # mshr miss rate for demand accesses
system.l2.demand_mshr_miss_rate::cpu3.data     0.003636                       # mshr miss rate for demand accesses
system.l2.demand_mshr_miss_rate::total       0.005074                       # mshr miss rate for demand accesses
system.l2.overall_mshr_miss_rate::cpu0.inst     0.826284                       # mshr miss rate for overall accesses
system.l2.overall_mshr_miss_rate::cpu0.data     0.005297                       # mshr miss rate for overall accesses
system.l2.overall_mshr_miss_rate::cpu1.inst     0.240741                       # mshr miss rate for overall accesses
system.l2.overall_mshr_miss_rate::cpu1.data     0.003470                       # mshr miss rate for overall accesses
system.l2.overall_mshr_miss_rate::cpu2.inst     0.055556                       # mshr miss rate for overall accesses
system.l2.overall_mshr_miss_rate::cpu2.data     0.003928                       # mshr miss rate for overall accesses
system.l2.overall_mshr_miss_rate::cpu3.inst     0.111111                       # mshr miss rate for overall accesses
system.l2.overall_mshr_miss_rate::cpu3.data     0.003636                       # mshr miss rate for overall accesses
system.l2.overall_mshr_miss_rate::l2.prefetcher          inf                       # mshr miss rate for overall accesses
system.l2.overall_mshr_miss_rate::total      0.012471                       # mshr miss rate for overall accesses
system.l2.ReadReq_avg_mshr_miss_latency::cpu0.inst 61315.356490                       # average ReadReq mshr miss latency
system.l2.ReadReq_avg_mshr_miss_latency::cpu0.data 70031.250000                       # average ReadReq mshr miss latency
system.l2.ReadReq_avg_mshr_miss_latency::cpu1.inst 88634.615385                       # average ReadReq mshr miss latency
system.l2.ReadReq_avg_mshr_miss_latency::cpu1.data        69500                       # average ReadReq mshr miss latency
system.l2.ReadReq_avg_mshr_miss_latency::cpu2.inst        61750                       # average ReadReq mshr miss latency
system.l2.ReadReq_avg_mshr_miss_latency::cpu2.data        66000                       # average ReadReq mshr miss latency
system.l2.ReadReq_avg_mshr_miss_latency::cpu3.inst 76416.666667                       # average ReadReq mshr miss latency
system.l2.ReadReq_avg_mshr_miss_latency::cpu3.data        66000                       # average ReadReq mshr miss latency
system.l2.ReadReq_avg_mshr_miss_latency::total 63446.947674                       # average ReadReq mshr miss latency
system.l2.HardPFReq_avg_mshr_miss_latency::l2.prefetcher 55571.307013                       # average HardPFReq mshr miss latency
system.l2.HardPFReq_avg_mshr_miss_latency::total 55571.307013                       # average HardPFReq mshr miss latency
system.l2.UpgradeReq_avg_mshr_miss_latency::cpu0.data 13834.333333                       # average UpgradeReq mshr miss latency
system.l2.UpgradeReq_avg_mshr_miss_latency::total 13834.333333                       # average UpgradeReq mshr miss latency
system.l2.ReadExReq_avg_mshr_miss_latency::cpu0.data 76151.410016                       # average ReadExReq mshr miss latency
system.l2.ReadExReq_avg_mshr_miss_latency::cpu1.data 76425.387597                       # average ReadExReq mshr miss latency
system.l2.ReadExReq_avg_mshr_miss_latency::cpu2.data 77097.868217                       # average ReadExReq mshr miss latency
system.l2.ReadExReq_avg_mshr_miss_latency::cpu3.data 77120.889749                       # average ReadExReq mshr miss latency
system.l2.ReadExReq_avg_mshr_miss_latency::total 76668.304845                       # average ReadExReq mshr miss latency
system.l2.demand_avg_mshr_miss_latency::cpu0.inst 61315.356490                       # average overall mshr miss latency
system.l2.demand_avg_mshr_miss_latency::cpu0.data 75238.683089                       # average overall mshr miss latency
system.l2.demand_avg_mshr_miss_latency::cpu1.inst 88634.615385                       # average overall mshr miss latency
system.l2.demand_avg_mshr_miss_latency::cpu1.data 76385.356455                       # average overall mshr miss latency
system.l2.demand_avg_mshr_miss_latency::cpu2.inst        61750                       # average overall mshr miss latency
system.l2.demand_avg_mshr_miss_latency::cpu2.data 77076.402321                       # average overall mshr miss latency
system.l2.demand_avg_mshr_miss_latency::cpu3.inst 76416.666667                       # average overall mshr miss latency
system.l2.demand_avg_mshr_miss_latency::cpu3.data 77056.730769                       # average overall mshr miss latency
system.l2.demand_avg_mshr_miss_latency::total 73505.476704                       # average overall mshr miss latency
system.l2.overall_avg_mshr_miss_latency::cpu0.inst 61315.356490                       # average overall mshr miss latency
system.l2.overall_avg_mshr_miss_latency::cpu0.data 75238.683089                       # average overall mshr miss latency
system.l2.overall_avg_mshr_miss_latency::cpu1.inst 88634.615385                       # average overall mshr miss latency
system.l2.overall_avg_mshr_miss_latency::cpu1.data 76385.356455                       # average overall mshr miss latency
system.l2.overall_avg_mshr_miss_latency::cpu2.inst        61750                       # average overall mshr miss latency
system.l2.overall_avg_mshr_miss_latency::cpu2.data 77076.402321                       # average overall mshr miss latency
system.l2.overall_avg_mshr_miss_latency::cpu3.inst 76416.666667                       # average overall mshr miss latency
system.l2.overall_avg_mshr_miss_latency::cpu3.data 77056.730769                       # average overall mshr miss latency
system.l2.overall_avg_mshr_miss_latency::l2.prefetcher 55571.307013                       # average overall mshr miss latency
system.l2.overall_avg_mshr_miss_latency::total 62868.798812                       # average overall mshr miss latency
system.l2.no_allocate_misses                        0                       # Number of misses that were no-allocate
system.membus.trans_dist::ReadReq                4857                       # Transaction distribution
system.membus.trans_dist::ReadResp               4856                       # Transaction distribution
system.membus.trans_dist::UpgradeReq                8                       # Transaction distribution
system.membus.trans_dist::SCUpgradeReq              8                       # Transaction distribution
system.membus.trans_dist::UpgradeResp               4                       # Transaction distribution
system.membus.trans_dist::ReadExReq              2187                       # Transaction distribution
system.membus.trans_dist::ReadExResp             2187                       # Transaction distribution
system.membus.pkt_count_system.l2.mem_side::system.mem_ctrls.port        14107                       # Packet count per connected master and slave (bytes)
system.membus.pkt_count::total                  14107                       # Packet count per connected master and slave (bytes)
system.membus.pkt_size_system.l2.mem_side::system.mem_ctrls.port       450752                       # Cumulative packet size per connected master and slave (bytes)
system.membus.pkt_size::total                  450752                       # Cumulative packet size per connected master and slave (bytes)
system.membus.snoops                               12                       # Total snoops (count)
system.membus.snoop_fanout::samples              7060                       # Request fanout histogram
system.membus.snoop_fanout::mean                    0                       # Request fanout histogram
system.membus.snoop_fanout::stdev                   0                       # Request fanout histogram
system.membus.snoop_fanout::underflows              0      0.00%      0.00% # Request fanout histogram
system.membus.snoop_fanout::0                    7060    100.00%    100.00% # Request fanout histogram
system.membus.snoop_fanout::1                       0      0.00%    100.00% # Request fanout histogram
system.membus.snoop_fanout::overflows               0      0.00%    100.00% # Request fanout histogram
system.membus.snoop_fanout::min_value               0                       # Request fanout histogram
system.membus.snoop_fanout::max_value               0                       # Request fanout histogram
system.membus.snoop_fanout::total                7060                       # Request fanout histogram
system.membus.reqLayer0.occupancy             9653784                       # Layer occupancy (ticks)
system.membus.reqLayer0.utilization               0.3                       # Layer utilization (%)
system.membus.respLayer1.occupancy           36949083                       # Layer occupancy (ticks)
system.membus.respLayer1.utilization              1.2                       # Layer utilization (%)
system.tol2bus.trans_dist::ReadReq            2119050                       # Transaction distribution
system.tol2bus.trans_dist::ReadResp           2119048                       # Transaction distribution
system.tol2bus.trans_dist::Writeback           564555                       # Transaction distribution
system.tol2bus.trans_dist::HardPFReq             4708                       # Transaction distribution
system.tol2bus.trans_dist::UpgradeReq               8                       # Transaction distribution
system.tol2bus.trans_dist::SCUpgradeReq            10                       # Transaction distribution
system.tol2bus.trans_dist::UpgradeResp             18                       # Transaction distribution
system.tol2bus.trans_dist::SCUpgradeFailReq            1                       # Transaction distribution
system.tol2bus.trans_dist::UpgradeFailResp            1                       # Transaction distribution
system.tol2bus.trans_dist::ReadExReq            20661                       # Transaction distribution
system.tol2bus.trans_dist::ReadExResp           20661                       # Transaction distribution
system.tol2bus.pkt_count_system.cpu0.icache.mem_side::system.l2.cpu_side         1322                       # Packet count per connected master and slave (bytes)
system.tol2bus.pkt_count_system.cpu0.dcache.mem_side::system.l2.cpu_side       821160                       # Packet count per connected master and slave (bytes)
system.tol2bus.pkt_count_system.cpu1.icache.mem_side::system.l2.cpu_side          108                       # Packet count per connected master and slave (bytes)
system.tol2bus.pkt_count_system.cpu1.dcache.mem_side::system.l2.cpu_side       832485                       # Packet count per connected master and slave (bytes)
system.tol2bus.pkt_count_system.cpu2.icache.mem_side::system.l2.cpu_side          108                       # Packet count per connected master and slave (bytes)
system.tol2bus.pkt_count_system.cpu2.dcache.mem_side::system.l2.cpu_side       796537                       # Packet count per connected master and slave (bytes)
system.tol2bus.pkt_count_system.cpu3.icache.mem_side::system.l2.cpu_side          108                       # Packet count per connected master and slave (bytes)
system.tol2bus.pkt_count_system.cpu3.dcache.mem_side::system.l2.cpu_side       819235                       # Packet count per connected master and slave (bytes)
system.tol2bus.pkt_count::total               3271063                       # Packet count per connected master and slave (bytes)
system.tol2bus.pkt_size_system.cpu0.icache.mem_side::system.l2.cpu_side        42240                       # Cumulative packet size per connected master and slave (bytes)
system.tol2bus.pkt_size_system.cpu0.dcache.mem_side::system.l2.cpu_side     18115840                       # Cumulative packet size per connected master and slave (bytes)
system.tol2bus.pkt_size_system.cpu1.icache.mem_side::system.l2.cpu_side         3456                       # Cumulative packet size per connected master and slave (bytes)
system.tol2bus.pkt_size_system.cpu1.dcache.mem_side::system.l2.cpu_side     19128448                       # Cumulative packet size per connected master and slave (bytes)
system.tol2bus.pkt_size_system.cpu2.icache.mem_side::system.l2.cpu_side         3456                       # Cumulative packet size per connected master and slave (bytes)
system.tol2bus.pkt_size_system.cpu2.dcache.mem_side::system.l2.cpu_side     16827520                       # Cumulative packet size per connected master and slave (bytes)
system.tol2bus.pkt_size_system.cpu3.icache.mem_side::system.l2.cpu_side         3456                       # Cumulative packet size per connected master and slave (bytes)
system.tol2bus.pkt_size_system.cpu3.dcache.mem_side::system.l2.cpu_side     18280512                       # Cumulative packet size per connected master and slave (bytes)
system.tol2bus.pkt_size::total               72404928                       # Cumulative packet size per connected master and slave (bytes)
system.tol2bus.snoops                         1577658                       # Total snoops (count)
system.tol2bus.snoop_fanout::samples          2708993                       # Request fanout histogram
system.tol2bus.snoop_fanout::mean            7.001738                       # Request fanout histogram
system.tol2bus.snoop_fanout::stdev           0.041652                       # Request fanout histogram
system.tol2bus.snoop_fanout::underflows             0      0.00%      0.00% # Request fanout histogram
system.tol2bus.snoop_fanout::0                      0      0.00%      0.00% # Request fanout histogram
system.tol2bus.snoop_fanout::1                      0      0.00%      0.00% # Request fanout histogram
system.tol2bus.snoop_fanout::2                      0      0.00%      0.00% # Request fanout histogram
system.tol2bus.snoop_fanout::3                      0      0.00%      0.00% # Request fanout histogram
system.tol2bus.snoop_fanout::4                      0      0.00%      0.00% # Request fanout histogram
system.tol2bus.snoop_fanout::5                      0      0.00%      0.00% # Request fanout histogram
system.tol2bus.snoop_fanout::6                      0      0.00%      0.00% # Request fanout histogram
system.tol2bus.snoop_fanout::7                2704285     99.83%     99.83% # Request fanout histogram
system.tol2bus.snoop_fanout::8                   4708      0.17%    100.00% # Request fanout histogram
system.tol2bus.snoop_fanout::overflows              0      0.00%    100.00% # Request fanout histogram
system.tol2bus.snoop_fanout::min_value              7                       # Request fanout histogram
system.tol2bus.snoop_fanout::max_value              8                       # Request fanout histogram
system.tol2bus.snoop_fanout::total            2708993                       # Request fanout histogram
system.tol2bus.reqLayer0.occupancy         1916697500                       # Layer occupancy (ticks)
system.tol2bus.reqLayer0.utilization             64.4                       # Layer utilization (%)
system.tol2bus.respLayer0.occupancy           1101737                       # Layer occupancy (ticks)
system.tol2bus.respLayer0.utilization             0.0                       # Layer utilization (%)
system.tol2bus.respLayer1.occupancy         940199325                       # Layer occupancy (ticks)
system.tol2bus.respLayer1.utilization            31.6                       # Layer utilization (%)
system.tol2bus.respLayer4.occupancy             87235                       # Layer occupancy (ticks)
system.tol2bus.respLayer4.utilization             0.0                       # Layer utilization (%)
system.tol2bus.respLayer5.occupancy         925248066                       # Layer occupancy (ticks)
system.tol2bus.respLayer5.utilization            31.1                       # Layer utilization (%)
system.tol2bus.respLayer8.occupancy             87972                       # Layer occupancy (ticks)
system.tol2bus.respLayer8.utilization             0.0                       # Layer utilization (%)
system.tol2bus.respLayer9.occupancy         932976543                       # Layer occupancy (ticks)
system.tol2bus.respLayer9.utilization            31.4                       # Layer utilization (%)
system.tol2bus.respLayer12.occupancy            85976                       # Layer occupancy (ticks)
system.tol2bus.respLayer12.utilization            0.0                       # Layer utilization (%)
system.tol2bus.respLayer13.occupancy        927027828                       # Layer occupancy (ticks)
system.tol2bus.respLayer13.utilization           31.2                       # Layer utilization (%)

---------- End Simulation Statistics   ----------
