
---------- Begin Simulation Statistics ----------
sim_seconds                                  0.002973                       # Number of seconds simulated
sim_ticks                                  2973085500                       # Number of ticks simulated
final_tick                                 2973085500                       # Number of ticks from beginning of simulation (restored from checkpoints and never reset)
sim_freq                                 1000000000000                       # Frequency of simulated ticks
host_inst_rate                                 162662                       # Simulator instruction rate (inst/s)
host_op_rate                                   162771                       # Simulator op (including micro ops) rate (op/s)
host_tick_rate                               15097302                       # Simulator tick rate (ticks/s)
host_mem_usage                                 664612                       # Number of bytes of host memory used
host_seconds                                   196.93                       # Real time elapsed on the host
sim_insts                                    32032697                       # Number of instructions simulated
sim_ops                                      32054239                       # Number of ops (including micro ops) simulated
system.voltage_domain.voltage                       1                       # Voltage in Volts
system.clk_domain.clock                          1000                       # Clock period in ticks
system.mem_ctrls.bytes_read::cpu0.inst          33536                       # Number of bytes read from this memory
system.mem_ctrls.bytes_read::cpu0.data          48064                       # Number of bytes read from this memory
system.mem_ctrls.bytes_read::cpu1.inst           1024                       # Number of bytes read from this memory
system.mem_ctrls.bytes_read::cpu1.data          33152                       # Number of bytes read from this memory
system.mem_ctrls.bytes_read::cpu2.inst             64                       # Number of bytes read from this memory
system.mem_ctrls.bytes_read::cpu2.data          33152                       # Number of bytes read from this memory
system.mem_ctrls.bytes_read::cpu3.inst            384                       # Number of bytes read from this memory
system.mem_ctrls.bytes_read::cpu3.data          33088                       # Number of bytes read from this memory
system.mem_ctrls.bytes_read::l2.prefetcher       266624                       # Number of bytes read from this memory
system.mem_ctrls.bytes_read::total             449088                       # Number of bytes read from this memory
system.mem_ctrls.bytes_inst_read::cpu0.inst        33536                       # Number of instructions bytes read from this memory
system.mem_ctrls.bytes_inst_read::cpu1.inst         1024                       # Number of instructions bytes read from this memory
system.mem_ctrls.bytes_inst_read::cpu2.inst           64                       # Number of instructions bytes read from this memory
system.mem_ctrls.bytes_inst_read::cpu3.inst          384                       # Number of instructions bytes read from this memory
system.mem_ctrls.bytes_inst_read::total         35008                       # Number of instructions bytes read from this memory
system.mem_ctrls.num_reads::cpu0.inst             524                       # Number of read requests responded to by this memory
system.mem_ctrls.num_reads::cpu0.data             751                       # Number of read requests responded to by this memory
system.mem_ctrls.num_reads::cpu1.inst              16                       # Number of read requests responded to by this memory
system.mem_ctrls.num_reads::cpu1.data             518                       # Number of read requests responded to by this memory
system.mem_ctrls.num_reads::cpu2.inst               1                       # Number of read requests responded to by this memory
system.mem_ctrls.num_reads::cpu2.data             518                       # Number of read requests responded to by this memory
system.mem_ctrls.num_reads::cpu3.inst               6                       # Number of read requests responded to by this memory
system.mem_ctrls.num_reads::cpu3.data             517                       # Number of read requests responded to by this memory
system.mem_ctrls.num_reads::l2.prefetcher         4166                       # Number of read requests responded to by this memory
system.mem_ctrls.num_reads::total                7017                       # Number of read requests responded to by this memory
system.mem_ctrls.bw_read::cpu0.inst          11279864                       # Total read bandwidth from this memory (bytes/s)
system.mem_ctrls.bw_read::cpu0.data          16166370                       # Total read bandwidth from this memory (bytes/s)
system.mem_ctrls.bw_read::cpu1.inst            344423                       # Total read bandwidth from this memory (bytes/s)
system.mem_ctrls.bw_read::cpu1.data          11150705                       # Total read bandwidth from this memory (bytes/s)
system.mem_ctrls.bw_read::cpu2.inst             21526                       # Total read bandwidth from this memory (bytes/s)
system.mem_ctrls.bw_read::cpu2.data          11150705                       # Total read bandwidth from this memory (bytes/s)
system.mem_ctrls.bw_read::cpu3.inst            129159                       # Total read bandwidth from this memory (bytes/s)
system.mem_ctrls.bw_read::cpu3.data          11129179                       # Total read bandwidth from this memory (bytes/s)
system.mem_ctrls.bw_read::l2.prefetcher      89679224                       # Total read bandwidth from this memory (bytes/s)
system.mem_ctrls.bw_read::total             151051155                       # Total read bandwidth from this memory (bytes/s)
system.mem_ctrls.bw_inst_read::cpu0.inst     11279864                       # Instruction read bandwidth from this memory (bytes/s)
system.mem_ctrls.bw_inst_read::cpu1.inst       344423                       # Instruction read bandwidth from this memory (bytes/s)
system.mem_ctrls.bw_inst_read::cpu2.inst        21526                       # Instruction read bandwidth from this memory (bytes/s)
system.mem_ctrls.bw_inst_read::cpu3.inst       129159                       # Instruction read bandwidth from this memory (bytes/s)
system.mem_ctrls.bw_inst_read::total         11774972                       # Instruction read bandwidth from this memory (bytes/s)
system.mem_ctrls.bw_total::cpu0.inst         11279864                       # Total bandwidth to/from this memory (bytes/s)
system.mem_ctrls.bw_total::cpu0.data         16166370                       # Total bandwidth to/from this memory (bytes/s)
system.mem_ctrls.bw_total::cpu1.inst           344423                       # Total bandwidth to/from this memory (bytes/s)
system.mem_ctrls.bw_total::cpu1.data         11150705                       # Total bandwidth to/from this memory (bytes/s)
system.mem_ctrls.bw_total::cpu2.inst            21526                       # Total bandwidth to/from this memory (bytes/s)
system.mem_ctrls.bw_total::cpu2.data         11150705                       # Total bandwidth to/from this memory (bytes/s)
system.mem_ctrls.bw_total::cpu3.inst           129159                       # Total bandwidth to/from this memory (bytes/s)
system.mem_ctrls.bw_total::cpu3.data         11129179                       # Total bandwidth to/from this memory (bytes/s)
system.mem_ctrls.bw_total::l2.prefetcher     89679224                       # Total bandwidth to/from this memory (bytes/s)
system.mem_ctrls.bw_total::total            151051155                       # Total bandwidth to/from this memory (bytes/s)
system.mem_ctrls.readReqs                        7017                       # Number of read requests accepted
system.mem_ctrls.writeReqs                          0                       # Number of write requests accepted
system.mem_ctrls.readBursts                      7017                       # Number of DRAM read bursts, including those serviced by the write queue
system.mem_ctrls.writeBursts                        0                       # Number of DRAM write bursts, including those merged in the write queue
system.mem_ctrls.bytesReadDRAM                 449088                       # Total number of bytes read from DRAM
system.mem_ctrls.bytesReadWrQ                       0                       # Total number of bytes read from write queue
system.mem_ctrls.bytesWritten                       0                       # Total number of bytes written to DRAM
system.mem_ctrls.bytesReadSys                  449088                       # Total read bytes from the system interface side
system.mem_ctrls.bytesWrittenSys                    0                       # Total written bytes from the system interface side
system.mem_ctrls.servicedByWrQ                      0                       # Number of DRAM read bursts serviced by the write queue
system.mem_ctrls.mergedWrBursts                     0                       # Number of DRAM write bursts merged with an existing one
system.mem_ctrls.neitherReadNorWriteReqs            5                       # Number of requests that are neither read nor write
system.mem_ctrls.perBankRdBursts::0               515                       # Per bank write bursts
system.mem_ctrls.perBankRdBursts::1               508                       # Per bank write bursts
system.mem_ctrls.perBankRdBursts::2               520                       # Per bank write bursts
system.mem_ctrls.perBankRdBursts::3               481                       # Per bank write bursts
system.mem_ctrls.perBankRdBursts::4               448                       # Per bank write bursts
system.mem_ctrls.perBankRdBursts::5               423                       # Per bank write bursts
system.mem_ctrls.perBankRdBursts::6               465                       # Per bank write bursts
system.mem_ctrls.perBankRdBursts::7               413                       # Per bank write bursts
system.mem_ctrls.perBankRdBursts::8               400                       # Per bank write bursts
system.mem_ctrls.perBankRdBursts::9               392                       # Per bank write bursts
system.mem_ctrls.perBankRdBursts::10              384                       # Per bank write bursts
system.mem_ctrls.perBankRdBursts::11              397                       # Per bank write bursts
system.mem_ctrls.perBankRdBursts::12              389                       # Per bank write bursts
system.mem_ctrls.perBankRdBursts::13              418                       # Per bank write bursts
system.mem_ctrls.perBankRdBursts::14              422                       # Per bank write bursts
system.mem_ctrls.perBankRdBursts::15              442                       # Per bank write bursts
system.mem_ctrls.perBankWrBursts::0                 0                       # Per bank write bursts
system.mem_ctrls.perBankWrBursts::1                 0                       # Per bank write bursts
system.mem_ctrls.perBankWrBursts::2                 0                       # Per bank write bursts
system.mem_ctrls.perBankWrBursts::3                 0                       # Per bank write bursts
system.mem_ctrls.perBankWrBursts::4                 0                       # Per bank write bursts
system.mem_ctrls.perBankWrBursts::5                 0                       # Per bank write bursts
system.mem_ctrls.perBankWrBursts::6                 0                       # Per bank write bursts
system.mem_ctrls.perBankWrBursts::7                 0                       # Per bank write bursts
system.mem_ctrls.perBankWrBursts::8                 0                       # Per bank write bursts
system.mem_ctrls.perBankWrBursts::9                 0                       # Per bank write bursts
system.mem_ctrls.perBankWrBursts::10                0                       # Per bank write bursts
system.mem_ctrls.perBankWrBursts::11                0                       # Per bank write bursts
system.mem_ctrls.perBankWrBursts::12                0                       # Per bank write bursts
system.mem_ctrls.perBankWrBursts::13                0                       # Per bank write bursts
system.mem_ctrls.perBankWrBursts::14                0                       # Per bank write bursts
system.mem_ctrls.perBankWrBursts::15                0                       # Per bank write bursts
system.mem_ctrls.numRdRetry                         0                       # Number of times read queue was full causing retry
system.mem_ctrls.numWrRetry                         0                       # Number of times write queue was full causing retry
system.mem_ctrls.totGap                    2973046500                       # Total gap between requests
system.mem_ctrls.readPktSize::0                     0                       # Read request sizes (log2)
system.mem_ctrls.readPktSize::1                     0                       # Read request sizes (log2)
system.mem_ctrls.readPktSize::2                     0                       # Read request sizes (log2)
system.mem_ctrls.readPktSize::3                     0                       # Read request sizes (log2)
system.mem_ctrls.readPktSize::4                     0                       # Read request sizes (log2)
system.mem_ctrls.readPktSize::5                     0                       # Read request sizes (log2)
system.mem_ctrls.readPktSize::6                  7017                       # Read request sizes (log2)
system.mem_ctrls.writePktSize::0                    0                       # Write request sizes (log2)
system.mem_ctrls.writePktSize::1                    0                       # Write request sizes (log2)
system.mem_ctrls.writePktSize::2                    0                       # Write request sizes (log2)
system.mem_ctrls.writePktSize::3                    0                       # Write request sizes (log2)
system.mem_ctrls.writePktSize::4                    0                       # Write request sizes (log2)
system.mem_ctrls.writePktSize::5                    0                       # Write request sizes (log2)
system.mem_ctrls.writePktSize::6                    0                       # Write request sizes (log2)
system.mem_ctrls.rdQLenPdf::0                    2907                       # What read queue length does an incoming req see
system.mem_ctrls.rdQLenPdf::1                    2328                       # What read queue length does an incoming req see
system.mem_ctrls.rdQLenPdf::2                     736                       # What read queue length does an incoming req see
system.mem_ctrls.rdQLenPdf::3                     618                       # What read queue length does an incoming req see
system.mem_ctrls.rdQLenPdf::4                      91                       # What read queue length does an incoming req see
system.mem_ctrls.rdQLenPdf::5                      85                       # What read queue length does an incoming req see
system.mem_ctrls.rdQLenPdf::6                      83                       # What read queue length does an incoming req see
system.mem_ctrls.rdQLenPdf::7                      81                       # What read queue length does an incoming req see
system.mem_ctrls.rdQLenPdf::8                      81                       # What read queue length does an incoming req see
system.mem_ctrls.rdQLenPdf::9                       6                       # What read queue length does an incoming req see
system.mem_ctrls.rdQLenPdf::10                      1                       # What read queue length does an incoming req see
system.mem_ctrls.rdQLenPdf::11                      0                       # What read queue length does an incoming req see
system.mem_ctrls.rdQLenPdf::12                      0                       # What read queue length does an incoming req see
system.mem_ctrls.rdQLenPdf::13                      0                       # What read queue length does an incoming req see
system.mem_ctrls.rdQLenPdf::14                      0                       # What read queue length does an incoming req see
system.mem_ctrls.rdQLenPdf::15                      0                       # What read queue length does an incoming req see
system.mem_ctrls.rdQLenPdf::16                      0                       # What read queue length does an incoming req see
system.mem_ctrls.rdQLenPdf::17                      0                       # What read queue length does an incoming req see
system.mem_ctrls.rdQLenPdf::18                      0                       # What read queue length does an incoming req see
system.mem_ctrls.rdQLenPdf::19                      0                       # What read queue length does an incoming req see
system.mem_ctrls.rdQLenPdf::20                      0                       # What read queue length does an incoming req see
system.mem_ctrls.rdQLenPdf::21                      0                       # What read queue length does an incoming req see
system.mem_ctrls.rdQLenPdf::22                      0                       # What read queue length does an incoming req see
system.mem_ctrls.rdQLenPdf::23                      0                       # What read queue length does an incoming req see
system.mem_ctrls.rdQLenPdf::24                      0                       # What read queue length does an incoming req see
system.mem_ctrls.rdQLenPdf::25                      0                       # What read queue length does an incoming req see
system.mem_ctrls.rdQLenPdf::26                      0                       # What read queue length does an incoming req see
system.mem_ctrls.rdQLenPdf::27                      0                       # What read queue length does an incoming req see
system.mem_ctrls.rdQLenPdf::28                      0                       # What read queue length does an incoming req see
system.mem_ctrls.rdQLenPdf::29                      0                       # What read queue length does an incoming req see
system.mem_ctrls.rdQLenPdf::30                      0                       # What read queue length does an incoming req see
system.mem_ctrls.rdQLenPdf::31                      0                       # What read queue length does an incoming req see
system.mem_ctrls.wrQLenPdf::0                       0                       # What write queue length does an incoming req see
system.mem_ctrls.wrQLenPdf::1                       0                       # What write queue length does an incoming req see
system.mem_ctrls.wrQLenPdf::2                       0                       # What write queue length does an incoming req see
system.mem_ctrls.wrQLenPdf::3                       0                       # What write queue length does an incoming req see
system.mem_ctrls.wrQLenPdf::4                       0                       # What write queue length does an incoming req see
system.mem_ctrls.wrQLenPdf::5                       0                       # What write queue length does an incoming req see
system.mem_ctrls.wrQLenPdf::6                       0                       # What write queue length does an incoming req see
system.mem_ctrls.wrQLenPdf::7                       0                       # What write queue length does an incoming req see
system.mem_ctrls.wrQLenPdf::8                       0                       # What write queue length does an incoming req see
system.mem_ctrls.wrQLenPdf::9                       0                       # What write queue length does an incoming req see
system.mem_ctrls.wrQLenPdf::10                      0                       # What write queue length does an incoming req see
system.mem_ctrls.wrQLenPdf::11                      0                       # What write queue length does an incoming req see
system.mem_ctrls.wrQLenPdf::12                      0                       # What write queue length does an incoming req see
system.mem_ctrls.wrQLenPdf::13                      0                       # What write queue length does an incoming req see
system.mem_ctrls.wrQLenPdf::14                      0                       # What write queue length does an incoming req see
system.mem_ctrls.wrQLenPdf::15                      0                       # What write queue length does an incoming req see
system.mem_ctrls.wrQLenPdf::16                      0                       # What write queue length does an incoming req see
system.mem_ctrls.wrQLenPdf::17                      0                       # What write queue length does an incoming req see
system.mem_ctrls.wrQLenPdf::18                      0                       # What write queue length does an incoming req see
system.mem_ctrls.wrQLenPdf::19                      0                       # What write queue length does an incoming req see
system.mem_ctrls.wrQLenPdf::20                      0                       # What write queue length does an incoming req see
system.mem_ctrls.wrQLenPdf::21                      0                       # What write queue length does an incoming req see
system.mem_ctrls.wrQLenPdf::22                      0                       # What write queue length does an incoming req see
system.mem_ctrls.wrQLenPdf::23                      0                       # What write queue length does an incoming req see
system.mem_ctrls.wrQLenPdf::24                      0                       # What write queue length does an incoming req see
system.mem_ctrls.wrQLenPdf::25                      0                       # What write queue length does an incoming req see
system.mem_ctrls.wrQLenPdf::26                      0                       # What write queue length does an incoming req see
system.mem_ctrls.wrQLenPdf::27                      0                       # What write queue length does an incoming req see
system.mem_ctrls.wrQLenPdf::28                      0                       # What write queue length does an incoming req see
system.mem_ctrls.wrQLenPdf::29                      0                       # What write queue length does an incoming req see
system.mem_ctrls.wrQLenPdf::30                      0                       # What write queue length does an incoming req see
system.mem_ctrls.wrQLenPdf::31                      0                       # What write queue length does an incoming req see
system.mem_ctrls.wrQLenPdf::32                      0                       # What write queue length does an incoming req see
system.mem_ctrls.wrQLenPdf::33                      0                       # What write queue length does an incoming req see
system.mem_ctrls.wrQLenPdf::34                      0                       # What write queue length does an incoming req see
system.mem_ctrls.wrQLenPdf::35                      0                       # What write queue length does an incoming req see
system.mem_ctrls.wrQLenPdf::36                      0                       # What write queue length does an incoming req see
system.mem_ctrls.wrQLenPdf::37                      0                       # What write queue length does an incoming req see
system.mem_ctrls.wrQLenPdf::38                      0                       # What write queue length does an incoming req see
system.mem_ctrls.wrQLenPdf::39                      0                       # What write queue length does an incoming req see
system.mem_ctrls.wrQLenPdf::40                      0                       # What write queue length does an incoming req see
system.mem_ctrls.wrQLenPdf::41                      0                       # What write queue length does an incoming req see
system.mem_ctrls.wrQLenPdf::42                      0                       # What write queue length does an incoming req see
system.mem_ctrls.wrQLenPdf::43                      0                       # What write queue length does an incoming req see
system.mem_ctrls.wrQLenPdf::44                      0                       # What write queue length does an incoming req see
system.mem_ctrls.wrQLenPdf::45                      0                       # What write queue length does an incoming req see
system.mem_ctrls.wrQLenPdf::46                      0                       # What write queue length does an incoming req see
system.mem_ctrls.wrQLenPdf::47                      0                       # What write queue length does an incoming req see
system.mem_ctrls.wrQLenPdf::48                      0                       # What write queue length does an incoming req see
system.mem_ctrls.wrQLenPdf::49                      0                       # What write queue length does an incoming req see
system.mem_ctrls.wrQLenPdf::50                      0                       # What write queue length does an incoming req see
system.mem_ctrls.wrQLenPdf::51                      0                       # What write queue length does an incoming req see
system.mem_ctrls.wrQLenPdf::52                      0                       # What write queue length does an incoming req see
system.mem_ctrls.wrQLenPdf::53                      0                       # What write queue length does an incoming req see
system.mem_ctrls.wrQLenPdf::54                      0                       # What write queue length does an incoming req see
system.mem_ctrls.wrQLenPdf::55                      0                       # What write queue length does an incoming req see
system.mem_ctrls.wrQLenPdf::56                      0                       # What write queue length does an incoming req see
system.mem_ctrls.wrQLenPdf::57                      0                       # What write queue length does an incoming req see
system.mem_ctrls.wrQLenPdf::58                      0                       # What write queue length does an incoming req see
system.mem_ctrls.wrQLenPdf::59                      0                       # What write queue length does an incoming req see
system.mem_ctrls.wrQLenPdf::60                      0                       # What write queue length does an incoming req see
system.mem_ctrls.wrQLenPdf::61                      0                       # What write queue length does an incoming req see
system.mem_ctrls.wrQLenPdf::62                      0                       # What write queue length does an incoming req see
system.mem_ctrls.wrQLenPdf::63                      0                       # What write queue length does an incoming req see
system.mem_ctrls.bytesPerActivate::samples         1952                       # Bytes accessed per row activation
system.mem_ctrls.bytesPerActivate::mean    229.114754                       # Bytes accessed per row activation
system.mem_ctrls.bytesPerActivate::gmean   124.869185                       # Bytes accessed per row activation
system.mem_ctrls.bytesPerActivate::stdev   325.317687                       # Bytes accessed per row activation
system.mem_ctrls.bytesPerActivate::0-127          990     50.72%     50.72% # Bytes accessed per row activation
system.mem_ctrls.bytesPerActivate::128-255          634     32.48%     83.20% # Bytes accessed per row activation
system.mem_ctrls.bytesPerActivate::256-383           22      1.13%     84.32% # Bytes accessed per row activation
system.mem_ctrls.bytesPerActivate::384-511           11      0.56%     84.89% # Bytes accessed per row activation
system.mem_ctrls.bytesPerActivate::512-639           13      0.67%     85.55% # Bytes accessed per row activation
system.mem_ctrls.bytesPerActivate::640-767            9      0.46%     86.01% # Bytes accessed per row activation
system.mem_ctrls.bytesPerActivate::768-895            5      0.26%     86.27% # Bytes accessed per row activation
system.mem_ctrls.bytesPerActivate::896-1023            7      0.36%     86.63% # Bytes accessed per row activation
system.mem_ctrls.bytesPerActivate::1024-1151          261     13.37%    100.00% # Bytes accessed per row activation
system.mem_ctrls.bytesPerActivate::total         1952                       # Bytes accessed per row activation
system.mem_ctrls.totQLat                     92404416                       # Total ticks spent queuing
system.mem_ctrls.totMemAccLat               223973166                       # Total ticks spent from burst creation until serviced by the DRAM
system.mem_ctrls.totBusLat                   35085000                       # Total ticks spent in databus transfers
system.mem_ctrls.avgQLat                     13168.65                       # Average queueing delay per DRAM burst
system.mem_ctrls.avgBusLat                    5000.00                       # Average bus latency per DRAM burst
system.mem_ctrls.avgMemAccLat                31918.65                       # Average memory access latency per DRAM burst
system.mem_ctrls.avgRdBW                       151.05                       # Average DRAM read bandwidth in MiByte/s
system.mem_ctrls.avgWrBW                         0.00                       # Average achieved write bandwidth in MiByte/s
system.mem_ctrls.avgRdBWSys                    151.05                       # Average system read bandwidth in MiByte/s
system.mem_ctrls.avgWrBWSys                      0.00                       # Average system write bandwidth in MiByte/s
system.mem_ctrls.peakBW                      12800.00                       # Theoretical peak bandwidth in MiByte/s
system.mem_ctrls.busUtil                         1.18                       # Data bus utilization in percentage
system.mem_ctrls.busUtilRead                     1.18                       # Data bus utilization in percentage for reads
system.mem_ctrls.busUtilWrite                    0.00                       # Data bus utilization in percentage for writes
system.mem_ctrls.avgRdQLen                       3.91                       # Average read queue length when enqueuing
system.mem_ctrls.avgWrQLen                       0.00                       # Average write queue length when enqueuing
system.mem_ctrls.readRowHits                     5055                       # Number of row buffer hits during reads
system.mem_ctrls.writeRowHits                       0                       # Number of row buffer hits during writes
system.mem_ctrls.readRowHitRate                 72.04                       # Row buffer hit rate for reads
system.mem_ctrls.writeRowHitRate                  nan                       # Row buffer hit rate for writes
system.mem_ctrls.avgGap                     423691.96                       # Average gap between requests
system.mem_ctrls.pageHitRate                    72.04                       # Row buffer hit rate, read and write combined
system.mem_ctrls_0.actEnergy                  7915320                       # Energy for activate commands per rank (pJ)
system.mem_ctrls_0.preEnergy                  4318875                       # Energy for precharge commands per rank (pJ)
system.mem_ctrls_0.readEnergy                29257800                       # Energy for read commands per rank (pJ)
system.mem_ctrls_0.writeEnergy                      0                       # Energy for write commands per rank (pJ)
system.mem_ctrls_0.refreshEnergy            193761360                       # Energy for refresh commands per rank (pJ)
system.mem_ctrls_0.actBackEnergy           1326316185                       # Energy for active background per rank (pJ)
system.mem_ctrls_0.preBackEnergy            616657500                       # Energy for precharge background per rank (pJ)
system.mem_ctrls_0.totalEnergy             2178227040                       # Total energy per rank (pJ)
system.mem_ctrls_0.averagePower            734.195577                       # Core power per rank (mW)
system.mem_ctrls_0.memoryStateTime::IDLE   1019150181                       # Time in different power states
system.mem_ctrls_0.memoryStateTime::REF      99060000                       # Time in different power states
system.mem_ctrls_0.memoryStateTime::PRE_PDN            0                       # Time in different power states
system.mem_ctrls_0.memoryStateTime::ACT    1851461819                       # Time in different power states
system.mem_ctrls_0.memoryStateTime::ACT_PDN            0                       # Time in different power states
system.mem_ctrls_1.actEnergy                  6788880                       # Energy for activate commands per rank (pJ)
system.mem_ctrls_1.preEnergy                  3704250                       # Energy for precharge commands per rank (pJ)
system.mem_ctrls_1.readEnergy                25006800                       # Energy for read commands per rank (pJ)
system.mem_ctrls_1.writeEnergy                      0                       # Energy for write commands per rank (pJ)
system.mem_ctrls_1.refreshEnergy            193761360                       # Energy for refresh commands per rank (pJ)
system.mem_ctrls_1.actBackEnergy           1318874265                       # Energy for active background per rank (pJ)
system.mem_ctrls_1.preBackEnergy            623185500                       # Energy for precharge background per rank (pJ)
system.mem_ctrls_1.totalEnergy             2171321055                       # Total energy per rank (pJ)
system.mem_ctrls_1.averagePower            731.867838                       # Core power per rank (mW)
system.mem_ctrls_1.memoryStateTime::IDLE   1030604963                       # Time in different power states
system.mem_ctrls_1.memoryStateTime::REF      99060000                       # Time in different power states
system.mem_ctrls_1.memoryStateTime::PRE_PDN            0                       # Time in different power states
system.mem_ctrls_1.memoryStateTime::ACT    1840276537                       # Time in different power states
system.mem_ctrls_1.memoryStateTime::ACT_PDN            0                       # Time in different power states
system.cpu0.branchPred.lookups                 579593                       # Number of BP lookups
system.cpu0.branchPred.condPredicted           577339                       # Number of conditional branches predicted
system.cpu0.branchPred.condIncorrect             5647                       # Number of conditional branches incorrect
system.cpu0.branchPred.BTBLookups              574394                       # Number of BTB lookups
system.cpu0.branchPred.BTBHits                 573622                       # Number of BTB hits
system.cpu0.branchPred.BTBCorrect                   0                       # Number of correct BTB predictions (this stat may not work properly.
system.cpu0.branchPred.BTBHitPct            99.865597                       # BTB Hit Percentage
system.cpu0.branchPred.usedRAS                    735                       # Number of times the RAS was used to get a target.
system.cpu0.branchPred.RASInCorrect                 7                       # Number of incorrect RAS predictions.
system.cpu_voltage_domain.voltage                   1                       # Voltage in Volts
system.cpu_clk_domain.clock                       500                       # Clock period in ticks
system.cpu0.dstage2_mmu.stage2_tlb.walker.walks            0                       # Table walker walks requested
system.cpu0.dstage2_mmu.stage2_tlb.walker.walkRequestOrigin_Requested::Data            0                       # Table walker requests started/completed, data/inst
system.cpu0.dstage2_mmu.stage2_tlb.walker.walkRequestOrigin_Requested::Inst            0                       # Table walker requests started/completed, data/inst
system.cpu0.dstage2_mmu.stage2_tlb.walker.walkRequestOrigin_Requested::total            0                       # Table walker requests started/completed, data/inst
system.cpu0.dstage2_mmu.stage2_tlb.walker.walkRequestOrigin_Completed::Data            0                       # Table walker requests started/completed, data/inst
system.cpu0.dstage2_mmu.stage2_tlb.walker.walkRequestOrigin_Completed::Inst            0                       # Table walker requests started/completed, data/inst
system.cpu0.dstage2_mmu.stage2_tlb.walker.walkRequestOrigin_Completed::total            0                       # Table walker requests started/completed, data/inst
system.cpu0.dstage2_mmu.stage2_tlb.walker.walkRequestOrigin::total            0                       # Table walker requests started/completed, data/inst
system.cpu0.dstage2_mmu.stage2_tlb.inst_hits            0                       # ITB inst hits
system.cpu0.dstage2_mmu.stage2_tlb.inst_misses            0                       # ITB inst misses
system.cpu0.dstage2_mmu.stage2_tlb.read_hits            0                       # DTB read hits
system.cpu0.dstage2_mmu.stage2_tlb.read_misses            0                       # DTB read misses
system.cpu0.dstage2_mmu.stage2_tlb.write_hits            0                       # DTB write hits
system.cpu0.dstage2_mmu.stage2_tlb.write_misses            0                       # DTB write misses
system.cpu0.dstage2_mmu.stage2_tlb.flush_tlb            0                       # Number of times complete TLB was flushed
system.cpu0.dstage2_mmu.stage2_tlb.flush_tlb_mva            0                       # Number of times TLB was flushed by MVA
system.cpu0.dstage2_mmu.stage2_tlb.flush_tlb_mva_asid            0                       # Number of times TLB was flushed by MVA & ASID
system.cpu0.dstage2_mmu.stage2_tlb.flush_tlb_asid            0                       # Number of times TLB was flushed by ASID
system.cpu0.dstage2_mmu.stage2_tlb.flush_entries            0                       # Number of entries that have been flushed from TLB
system.cpu0.dstage2_mmu.stage2_tlb.align_faults            0                       # Number of TLB faults due to alignment restrictions
system.cpu0.dstage2_mmu.stage2_tlb.prefetch_faults            0                       # Number of TLB faults due to prefetch
system.cpu0.dstage2_mmu.stage2_tlb.domain_faults            0                       # Number of TLB faults due to domain restrictions
system.cpu0.dstage2_mmu.stage2_tlb.perms_faults            0                       # Number of TLB faults due to permissions restrictions
system.cpu0.dstage2_mmu.stage2_tlb.read_accesses            0                       # DTB read accesses
system.cpu0.dstage2_mmu.stage2_tlb.write_accesses            0                       # DTB write accesses
system.cpu0.dstage2_mmu.stage2_tlb.inst_accesses            0                       # ITB inst accesses
system.cpu0.dstage2_mmu.stage2_tlb.hits             0                       # DTB hits
system.cpu0.dstage2_mmu.stage2_tlb.misses            0                       # DTB misses
system.cpu0.dstage2_mmu.stage2_tlb.accesses            0                       # DTB accesses
system.cpu0.dtb.walker.walks                        0                       # Table walker walks requested
system.cpu0.dtb.walker.walkRequestOrigin_Requested::Data            0                       # Table walker requests started/completed, data/inst
system.cpu0.dtb.walker.walkRequestOrigin_Requested::Inst            0                       # Table walker requests started/completed, data/inst
system.cpu0.dtb.walker.walkRequestOrigin_Requested::total            0                       # Table walker requests started/completed, data/inst
system.cpu0.dtb.walker.walkRequestOrigin_Completed::Data            0                       # Table walker requests started/completed, data/inst
system.cpu0.dtb.walker.walkRequestOrigin_Completed::Inst            0                       # Table walker requests started/completed, data/inst
system.cpu0.dtb.walker.walkRequestOrigin_Completed::total            0                       # Table walker requests started/completed, data/inst
system.cpu0.dtb.walker.walkRequestOrigin::total            0                       # Table walker requests started/completed, data/inst
system.cpu0.dtb.inst_hits                           0                       # ITB inst hits
system.cpu0.dtb.inst_misses                         0                       # ITB inst misses
system.cpu0.dtb.read_hits                           0                       # DTB read hits
system.cpu0.dtb.read_misses                         0                       # DTB read misses
system.cpu0.dtb.write_hits                          0                       # DTB write hits
system.cpu0.dtb.write_misses                        0                       # DTB write misses
system.cpu0.dtb.flush_tlb                           0                       # Number of times complete TLB was flushed
system.cpu0.dtb.flush_tlb_mva                       0                       # Number of times TLB was flushed by MVA
system.cpu0.dtb.flush_tlb_mva_asid                  0                       # Number of times TLB was flushed by MVA & ASID
system.cpu0.dtb.flush_tlb_asid                      0                       # Number of times TLB was flushed by ASID
system.cpu0.dtb.flush_entries                       0                       # Number of entries that have been flushed from TLB
system.cpu0.dtb.align_faults                        0                       # Number of TLB faults due to alignment restrictions
system.cpu0.dtb.prefetch_faults                     0                       # Number of TLB faults due to prefetch
system.cpu0.dtb.domain_faults                       0                       # Number of TLB faults due to domain restrictions
system.cpu0.dtb.perms_faults                        0                       # Number of TLB faults due to permissions restrictions
system.cpu0.dtb.read_accesses                       0                       # DTB read accesses
system.cpu0.dtb.write_accesses                      0                       # DTB write accesses
system.cpu0.dtb.inst_accesses                       0                       # ITB inst accesses
system.cpu0.dtb.hits                                0                       # DTB hits
system.cpu0.dtb.misses                              0                       # DTB misses
system.cpu0.dtb.accesses                            0                       # DTB accesses
system.cpu0.istage2_mmu.stage2_tlb.walker.walks            0                       # Table walker walks requested
system.cpu0.istage2_mmu.stage2_tlb.walker.walkRequestOrigin_Requested::Data            0                       # Table walker requests started/completed, data/inst
system.cpu0.istage2_mmu.stage2_tlb.walker.walkRequestOrigin_Requested::Inst            0                       # Table walker requests started/completed, data/inst
system.cpu0.istage2_mmu.stage2_tlb.walker.walkRequestOrigin_Requested::total            0                       # Table walker requests started/completed, data/inst
system.cpu0.istage2_mmu.stage2_tlb.walker.walkRequestOrigin_Completed::Data            0                       # Table walker requests started/completed, data/inst
system.cpu0.istage2_mmu.stage2_tlb.walker.walkRequestOrigin_Completed::Inst            0                       # Table walker requests started/completed, data/inst
system.cpu0.istage2_mmu.stage2_tlb.walker.walkRequestOrigin_Completed::total            0                       # Table walker requests started/completed, data/inst
system.cpu0.istage2_mmu.stage2_tlb.walker.walkRequestOrigin::total            0                       # Table walker requests started/completed, data/inst
system.cpu0.istage2_mmu.stage2_tlb.inst_hits            0                       # ITB inst hits
system.cpu0.istage2_mmu.stage2_tlb.inst_misses            0                       # ITB inst misses
system.cpu0.istage2_mmu.stage2_tlb.read_hits            0                       # DTB read hits
system.cpu0.istage2_mmu.stage2_tlb.read_misses            0                       # DTB read misses
system.cpu0.istage2_mmu.stage2_tlb.write_hits            0                       # DTB write hits
system.cpu0.istage2_mmu.stage2_tlb.write_misses            0                       # DTB write misses
system.cpu0.istage2_mmu.stage2_tlb.flush_tlb            0                       # Number of times complete TLB was flushed
system.cpu0.istage2_mmu.stage2_tlb.flush_tlb_mva            0                       # Number of times TLB was flushed by MVA
system.cpu0.istage2_mmu.stage2_tlb.flush_tlb_mva_asid            0                       # Number of times TLB was flushed by MVA & ASID
system.cpu0.istage2_mmu.stage2_tlb.flush_tlb_asid            0                       # Number of times TLB was flushed by ASID
system.cpu0.istage2_mmu.stage2_tlb.flush_entries            0                       # Number of entries that have been flushed from TLB
system.cpu0.istage2_mmu.stage2_tlb.align_faults            0                       # Number of TLB faults due to alignment restrictions
system.cpu0.istage2_mmu.stage2_tlb.prefetch_faults            0                       # Number of TLB faults due to prefetch
system.cpu0.istage2_mmu.stage2_tlb.domain_faults            0                       # Number of TLB faults due to domain restrictions
system.cpu0.istage2_mmu.stage2_tlb.perms_faults            0                       # Number of TLB faults due to permissions restrictions
system.cpu0.istage2_mmu.stage2_tlb.read_accesses            0                       # DTB read accesses
system.cpu0.istage2_mmu.stage2_tlb.write_accesses            0                       # DTB write accesses
system.cpu0.istage2_mmu.stage2_tlb.inst_accesses            0                       # ITB inst accesses
system.cpu0.istage2_mmu.stage2_tlb.hits             0                       # DTB hits
system.cpu0.istage2_mmu.stage2_tlb.misses            0                       # DTB misses
system.cpu0.istage2_mmu.stage2_tlb.accesses            0                       # DTB accesses
system.cpu0.itb.walker.walks                        0                       # Table walker walks requested
system.cpu0.itb.walker.walkRequestOrigin_Requested::Data            0                       # Table walker requests started/completed, data/inst
system.cpu0.itb.walker.walkRequestOrigin_Requested::Inst            0                       # Table walker requests started/completed, data/inst
system.cpu0.itb.walker.walkRequestOrigin_Requested::total            0                       # Table walker requests started/completed, data/inst
system.cpu0.itb.walker.walkRequestOrigin_Completed::Data            0                       # Table walker requests started/completed, data/inst
system.cpu0.itb.walker.walkRequestOrigin_Completed::Inst            0                       # Table walker requests started/completed, data/inst
system.cpu0.itb.walker.walkRequestOrigin_Completed::total            0                       # Table walker requests started/completed, data/inst
system.cpu0.itb.walker.walkRequestOrigin::total            0                       # Table walker requests started/completed, data/inst
system.cpu0.itb.inst_hits                           0                       # ITB inst hits
system.cpu0.itb.inst_misses                         0                       # ITB inst misses
system.cpu0.itb.read_hits                           0                       # DTB read hits
system.cpu0.itb.read_misses                         0                       # DTB read misses
system.cpu0.itb.write_hits                          0                       # DTB write hits
system.cpu0.itb.write_misses                        0                       # DTB write misses
system.cpu0.itb.flush_tlb                           0                       # Number of times complete TLB was flushed
system.cpu0.itb.flush_tlb_mva                       0                       # Number of times TLB was flushed by MVA
system.cpu0.itb.flush_tlb_mva_asid                  0                       # Number of times TLB was flushed by MVA & ASID
system.cpu0.itb.flush_tlb_asid                      0                       # Number of times TLB was flushed by ASID
system.cpu0.itb.flush_entries                       0                       # Number of entries that have been flushed from TLB
system.cpu0.itb.align_faults                        0                       # Number of TLB faults due to alignment restrictions
system.cpu0.itb.prefetch_faults                     0                       # Number of TLB faults due to prefetch
system.cpu0.itb.domain_faults                       0                       # Number of TLB faults due to domain restrictions
system.cpu0.itb.perms_faults                        0                       # Number of TLB faults due to permissions restrictions
system.cpu0.itb.read_accesses                       0                       # DTB read accesses
system.cpu0.itb.write_accesses                      0                       # DTB write accesses
system.cpu0.itb.inst_accesses                       0                       # ITB inst accesses
system.cpu0.itb.hits                                0                       # DTB hits
system.cpu0.itb.misses                              0                       # DTB misses
system.cpu0.itb.accesses                            0                       # DTB accesses
system.cpu0.workload.num_syscalls                  61                       # Number of system calls
system.cpu0.numCycles                         5946172                       # number of cpu cycles simulated
system.cpu0.numWorkItemsStarted                     0                       # number of work items this cpu started
system.cpu0.numWorkItemsCompleted                   0                       # number of work items this cpu completed
system.cpu0.fetch.icacheStallCycles             18627                       # Number of cycles fetch is stalled on an Icache miss
system.cpu0.fetch.Insts                       8467039                       # Number of instructions fetch has processed
system.cpu0.fetch.Branches                     579593                       # Number of branches that fetch encountered
system.cpu0.fetch.predictedBranches            574357                       # Number of branches that fetch has predicted taken
system.cpu0.fetch.Cycles                      5880140                       # Number of cycles fetch has run and was not squashing or blocked
system.cpu0.fetch.SquashCycles                  11369                       # Number of cycles fetch has spent squashing
system.cpu0.fetch.MiscStallCycles                 403                       # Number of cycles fetch has spent waiting on interrupts, or bad addresses, or out of MSHRs
system.cpu0.fetch.PendingTrapStallCycles          109                       # Number of stall cycles due to pending traps
system.cpu0.fetch.IcacheWaitRetryStallCycles          592                       # Number of stall cycles due to full MSHR
system.cpu0.fetch.CacheLines                  2276127                       # Number of cache lines fetched
system.cpu0.fetch.IcacheSquashes                  360                       # Number of outstanding Icache misses that were squashed
system.cpu0.fetch.rateDist::samples           5905555                       # Number of instructions fetched each cycle (Total)
system.cpu0.fetch.rateDist::mean             1.435682                       # Number of instructions fetched each cycle (Total)
system.cpu0.fetch.rateDist::stdev            1.261729                       # Number of instructions fetched each cycle (Total)
system.cpu0.fetch.rateDist::underflows              0      0.00%      0.00% # Number of instructions fetched each cycle (Total)
system.cpu0.fetch.rateDist::0                 1874221     31.74%     31.74% # Number of instructions fetched each cycle (Total)
system.cpu0.fetch.rateDist::1                 1684675     28.53%     60.26% # Number of instructions fetched each cycle (Total)
system.cpu0.fetch.rateDist::2                  246153      4.17%     64.43% # Number of instructions fetched each cycle (Total)
system.cpu0.fetch.rateDist::3                 2100506     35.57%    100.00% # Number of instructions fetched each cycle (Total)
system.cpu0.fetch.rateDist::overflows               0      0.00%    100.00% # Number of instructions fetched each cycle (Total)
system.cpu0.fetch.rateDist::min_value               0                       # Number of instructions fetched each cycle (Total)
system.cpu0.fetch.rateDist::max_value               3                       # Number of instructions fetched each cycle (Total)
system.cpu0.fetch.rateDist::total             5905555                       # Number of instructions fetched each cycle (Total)
system.cpu0.fetch.branchRate                 0.097473                       # Number of branch fetches per cycle
system.cpu0.fetch.rate                       1.423948                       # Number of inst fetches per cycle
system.cpu0.decode.IdleCycles                  724932                       # Number of cycles decode is idle
system.cpu0.decode.BlockedCycles              2323680                       # Number of cycles decode is blocked
system.cpu0.decode.RunCycles                  1783402                       # Number of cycles decode is running
system.cpu0.decode.UnblockCycles              1068185                       # Number of cycles decode is unblocking
system.cpu0.decode.SquashCycles                  5356                       # Number of cycles decode is squashing
system.cpu0.decode.BranchResolved                 894                       # Number of times decode resolved a branch
system.cpu0.decode.BranchMispred                  342                       # Number of times decode detected a branch misprediction
system.cpu0.decode.DecodedInsts               8329524                       # Number of instructions handled by decode
system.cpu0.decode.SquashedInsts                21727                       # Number of squashed instructions handled by decode
system.cpu0.rename.SquashCycles                  5356                       # Number of cycles rename is squashing
system.cpu0.rename.IdleCycles                 1309841                       # Number of cycles rename is idle
system.cpu0.rename.BlockCycles                 983983                       # Number of cycles rename is blocking
system.cpu0.rename.serializeStallCycles          7204                       # count of cycles rename stalled for serializing inst
system.cpu0.rename.RunCycles                  2148359                       # Number of cycles rename is running
system.cpu0.rename.UnblockCycles              1450812                       # Number of cycles rename is unblocking
system.cpu0.rename.RenamedInsts               8305863                       # Number of instructions processed by rename
system.cpu0.rename.SquashedInsts                 8742                       # Number of squashed instructions processed by rename
system.cpu0.rename.ROBFullEvents              1039679                       # Number of times rename has blocked due to ROB full
system.cpu0.rename.IQFullEvents                   240                       # Number of times rename has blocked due to IQ full
system.cpu0.rename.LQFullEvents                    11                       # Number of times rename has blocked due to LQ full
system.cpu0.rename.SQFullEvents                 14579                       # Number of times rename has blocked due to SQ full
system.cpu0.rename.RenamedOperands           10893286                       # Number of destination operands rename has renamed
system.cpu0.rename.RenameLookups             40926621                       # Number of register rename lookups that rename has made
system.cpu0.rename.int_rename_lookups        13790374                       # Number of integer rename lookups
system.cpu0.rename.fp_rename_lookups               22                       # Number of floating rename lookups
system.cpu0.rename.CommittedMaps             10848656                       # Number of HB maps that are committed
system.cpu0.rename.UndoneMaps                   44630                       # Number of HB maps that are undone due to squashing
system.cpu0.rename.serializingInsts               107                       # count of serializing insts renamed
system.cpu0.rename.tempSerializingInsts           107                       # count of temporary serializing insts renamed
system.cpu0.rename.skidInsts                  2449034                       # count of insts added to the skid buffer
system.cpu0.memDep0.insertedLoads             2129028                       # Number of loads inserted to the mem dependence unit.
system.cpu0.memDep0.insertedStores              82628                       # Number of stores inserted to the mem dependence unit.
system.cpu0.memDep0.conflictingLoads              246                       # Number of conflicting loads.
system.cpu0.memDep0.conflictingStores             117                       # Number of conflicting stores.
system.cpu0.iq.iqInstsAdded                   8296207                       # Number of instructions added to the IQ (excludes non-spec)
system.cpu0.iq.iqNonSpecInstsAdded                243                       # Number of non-speculative instructions added to the IQ
system.cpu0.iq.iqInstsIssued                  8288893                       # Number of instructions issued
system.cpu0.iq.iqSquashedInstsIssued             2084                       # Number of squashed instructions issued
system.cpu0.iq.iqSquashedInstsExamined          29545                       # Number of squashed instructions iterated over during squash; mainly for profiling
system.cpu0.iq.iqSquashedOperandsExamined        88643                       # Number of squashed operands that are examined and possibly removed from graph
system.cpu0.iq.iqSquashedNonSpecRemoved            51                       # Number of squashed non-spec instructions that were removed
system.cpu0.iq.issued_per_cycle::samples      5905555                       # Number of insts issued each cycle
system.cpu0.iq.issued_per_cycle::mean        1.403576                       # Number of insts issued each cycle
system.cpu0.iq.issued_per_cycle::stdev       1.045142                       # Number of insts issued each cycle
system.cpu0.iq.issued_per_cycle::underflows            0      0.00%      0.00% # Number of insts issued each cycle
system.cpu0.iq.issued_per_cycle::0            1175840     19.91%     19.91% # Number of insts issued each cycle
system.cpu0.iq.issued_per_cycle::1            2351752     39.82%     59.73% # Number of insts issued each cycle
system.cpu0.iq.issued_per_cycle::2            1353584     22.92%     82.65% # Number of insts issued each cycle
system.cpu0.iq.issued_per_cycle::3             868296     14.70%     97.36% # Number of insts issued each cycle
system.cpu0.iq.issued_per_cycle::4             155330      2.63%     99.99% # Number of insts issued each cycle
system.cpu0.iq.issued_per_cycle::5                753      0.01%    100.00% # Number of insts issued each cycle
system.cpu0.iq.issued_per_cycle::6                  0      0.00%    100.00% # Number of insts issued each cycle
system.cpu0.iq.issued_per_cycle::7                  0      0.00%    100.00% # Number of insts issued each cycle
system.cpu0.iq.issued_per_cycle::8                  0      0.00%    100.00% # Number of insts issued each cycle
system.cpu0.iq.issued_per_cycle::overflows            0      0.00%    100.00% # Number of insts issued each cycle
system.cpu0.iq.issued_per_cycle::min_value            0                       # Number of insts issued each cycle
system.cpu0.iq.issued_per_cycle::max_value            5                       # Number of insts issued each cycle
system.cpu0.iq.issued_per_cycle::total        5905555                       # Number of insts issued each cycle
system.cpu0.iq.fu_full::No_OpClass                  0      0.00%      0.00% # attempts to use FU when none available
system.cpu0.iq.fu_full::IntAlu                 165457     14.69%     14.69% # attempts to use FU when none available
system.cpu0.iq.fu_full::IntMult                 44060      3.91%     18.60% # attempts to use FU when none available
system.cpu0.iq.fu_full::IntDiv                      0      0.00%     18.60% # attempts to use FU when none available
system.cpu0.iq.fu_full::FloatAdd                    0      0.00%     18.60% # attempts to use FU when none available
system.cpu0.iq.fu_full::FloatCmp                    0      0.00%     18.60% # attempts to use FU when none available
system.cpu0.iq.fu_full::FloatCvt                    0      0.00%     18.60% # attempts to use FU when none available
system.cpu0.iq.fu_full::FloatMult                   0      0.00%     18.60% # attempts to use FU when none available
system.cpu0.iq.fu_full::FloatDiv                    0      0.00%     18.60% # attempts to use FU when none available
system.cpu0.iq.fu_full::FloatSqrt                   0      0.00%     18.60% # attempts to use FU when none available
system.cpu0.iq.fu_full::SimdAdd                     0      0.00%     18.60% # attempts to use FU when none available
system.cpu0.iq.fu_full::SimdAddAcc                  0      0.00%     18.60% # attempts to use FU when none available
system.cpu0.iq.fu_full::SimdAlu                     0      0.00%     18.60% # attempts to use FU when none available
system.cpu0.iq.fu_full::SimdCmp                     0      0.00%     18.60% # attempts to use FU when none available
system.cpu0.iq.fu_full::SimdCvt                     0      0.00%     18.60% # attempts to use FU when none available
system.cpu0.iq.fu_full::SimdMisc                    0      0.00%     18.60% # attempts to use FU when none available
system.cpu0.iq.fu_full::SimdMult                    0      0.00%     18.60% # attempts to use FU when none available
system.cpu0.iq.fu_full::SimdMultAcc                 0      0.00%     18.60% # attempts to use FU when none available
system.cpu0.iq.fu_full::SimdShift                   0      0.00%     18.60% # attempts to use FU when none available
system.cpu0.iq.fu_full::SimdShiftAcc                0      0.00%     18.60% # attempts to use FU when none available
system.cpu0.iq.fu_full::SimdSqrt                    0      0.00%     18.60% # attempts to use FU when none available
system.cpu0.iq.fu_full::SimdFloatAdd                0      0.00%     18.60% # attempts to use FU when none available
system.cpu0.iq.fu_full::SimdFloatAlu                0      0.00%     18.60% # attempts to use FU when none available
system.cpu0.iq.fu_full::SimdFloatCmp                0      0.00%     18.60% # attempts to use FU when none available
system.cpu0.iq.fu_full::SimdFloatCvt                0      0.00%     18.60% # attempts to use FU when none available
system.cpu0.iq.fu_full::SimdFloatDiv                0      0.00%     18.60% # attempts to use FU when none available
system.cpu0.iq.fu_full::SimdFloatMisc               0      0.00%     18.60% # attempts to use FU when none available
system.cpu0.iq.fu_full::SimdFloatMult               0      0.00%     18.60% # attempts to use FU when none available
system.cpu0.iq.fu_full::SimdFloatMultAcc            0      0.00%     18.60% # attempts to use FU when none available
system.cpu0.iq.fu_full::SimdFloatSqrt               0      0.00%     18.60% # attempts to use FU when none available
system.cpu0.iq.fu_full::MemRead                912413     80.99%     99.59% # attempts to use FU when none available
system.cpu0.iq.fu_full::MemWrite                 4589      0.41%    100.00% # attempts to use FU when none available
system.cpu0.iq.fu_full::IprAccess                   0      0.00%    100.00% # attempts to use FU when none available
system.cpu0.iq.fu_full::InstPrefetch                0      0.00%    100.00% # attempts to use FU when none available
system.cpu0.iq.FU_type_0::No_OpClass                0      0.00%      0.00% # Type of FU issued
system.cpu0.iq.FU_type_0::IntAlu              4473942     53.98%     53.98% # Type of FU issued
system.cpu0.iq.FU_type_0::IntMult             1605920     19.37%     73.35% # Type of FU issued
system.cpu0.iq.FU_type_0::IntDiv                    0      0.00%     73.35% # Type of FU issued
system.cpu0.iq.FU_type_0::FloatAdd                  0      0.00%     73.35% # Type of FU issued
system.cpu0.iq.FU_type_0::FloatCmp                  0      0.00%     73.35% # Type of FU issued
system.cpu0.iq.FU_type_0::FloatCvt                  0      0.00%     73.35% # Type of FU issued
system.cpu0.iq.FU_type_0::FloatMult                 0      0.00%     73.35% # Type of FU issued
system.cpu0.iq.FU_type_0::FloatDiv                  0      0.00%     73.35% # Type of FU issued
system.cpu0.iq.FU_type_0::FloatSqrt                 0      0.00%     73.35% # Type of FU issued
system.cpu0.iq.FU_type_0::SimdAdd                   0      0.00%     73.35% # Type of FU issued
system.cpu0.iq.FU_type_0::SimdAddAcc                0      0.00%     73.35% # Type of FU issued
system.cpu0.iq.FU_type_0::SimdAlu                   0      0.00%     73.35% # Type of FU issued
system.cpu0.iq.FU_type_0::SimdCmp                   0      0.00%     73.35% # Type of FU issued
system.cpu0.iq.FU_type_0::SimdCvt                   0      0.00%     73.35% # Type of FU issued
system.cpu0.iq.FU_type_0::SimdMisc                  0      0.00%     73.35% # Type of FU issued
system.cpu0.iq.FU_type_0::SimdMult                  0      0.00%     73.35% # Type of FU issued
system.cpu0.iq.FU_type_0::SimdMultAcc               0      0.00%     73.35% # Type of FU issued
system.cpu0.iq.FU_type_0::SimdShift                 0      0.00%     73.35% # Type of FU issued
system.cpu0.iq.FU_type_0::SimdShiftAcc              0      0.00%     73.35% # Type of FU issued
system.cpu0.iq.FU_type_0::SimdSqrt                  0      0.00%     73.35% # Type of FU issued
system.cpu0.iq.FU_type_0::SimdFloatAdd              0      0.00%     73.35% # Type of FU issued
system.cpu0.iq.FU_type_0::SimdFloatAlu              0      0.00%     73.35% # Type of FU issued
system.cpu0.iq.FU_type_0::SimdFloatCmp              0      0.00%     73.35% # Type of FU issued
system.cpu0.iq.FU_type_0::SimdFloatCvt              0      0.00%     73.35% # Type of FU issued
system.cpu0.iq.FU_type_0::SimdFloatDiv              0      0.00%     73.35% # Type of FU issued
system.cpu0.iq.FU_type_0::SimdFloatMisc             3      0.00%     73.35% # Type of FU issued
system.cpu0.iq.FU_type_0::SimdFloatMult             0      0.00%     73.35% # Type of FU issued
system.cpu0.iq.FU_type_0::SimdFloatMultAcc            0      0.00%     73.35% # Type of FU issued
system.cpu0.iq.FU_type_0::SimdFloatSqrt             0      0.00%     73.35% # Type of FU issued
system.cpu0.iq.FU_type_0::MemRead             2126892     25.66%     99.01% # Type of FU issued
system.cpu0.iq.FU_type_0::MemWrite              82136      0.99%    100.00% # Type of FU issued
system.cpu0.iq.FU_type_0::IprAccess                 0      0.00%    100.00% # Type of FU issued
system.cpu0.iq.FU_type_0::InstPrefetch              0      0.00%    100.00% # Type of FU issued
system.cpu0.iq.FU_type_0::total               8288893                       # Type of FU issued
system.cpu0.iq.rate                          1.393988                       # Inst issue rate
system.cpu0.iq.fu_busy_cnt                    1126519                       # FU busy when requested
system.cpu0.iq.fu_busy_rate                  0.135907                       # FU busy rate (busy events/executed inst)
system.cpu0.iq.int_inst_queue_reads          23611867                       # Number of integer instruction queue reads
system.cpu0.iq.int_inst_queue_writes          8325986                       # Number of integer instruction queue writes
system.cpu0.iq.int_inst_queue_wakeup_accesses      8275944                       # Number of integer instruction queue wakeup accesses
system.cpu0.iq.fp_inst_queue_reads                 77                       # Number of floating instruction queue reads
system.cpu0.iq.fp_inst_queue_writes                28                       # Number of floating instruction queue writes
system.cpu0.iq.fp_inst_queue_wakeup_accesses           28                       # Number of floating instruction queue wakeup accesses
system.cpu0.iq.int_alu_accesses               9415363                       # Number of integer alu accesses
system.cpu0.iq.fp_alu_accesses                     49                       # Number of floating point alu accesses
system.cpu0.iew.lsq.thread0.forwLoads              80                       # Number of loads that had data forwarded from stores
system.cpu0.iew.lsq.thread0.invAddrLoads            0                       # Number of loads ignored due to an invalid address
system.cpu0.iew.lsq.thread0.squashedLoads        12281                       # Number of loads squashed
system.cpu0.iew.lsq.thread0.ignoredResponses            0                       # Number of memory responses ignored because the instruction is squashed
system.cpu0.iew.lsq.thread0.memOrderViolation           20                       # Number of memory ordering violations
system.cpu0.iew.lsq.thread0.squashedStores          913                       # Number of stores squashed
system.cpu0.iew.lsq.thread0.invAddrSwpfs            0                       # Number of software prefetches ignored due to an invalid address
system.cpu0.iew.lsq.thread0.blockedLoads            0                       # Number of blocked loads due to partial load-store forwarding
system.cpu0.iew.lsq.thread0.rescheduledLoads            8                       # Number of loads that were rescheduled
system.cpu0.iew.lsq.thread0.cacheBlocked          229                       # Number of times an access to memory failed due to the cache being blocked
system.cpu0.iew.iewIdleCycles                       0                       # Number of cycles IEW is idle
system.cpu0.iew.iewSquashCycles                  5356                       # Number of cycles IEW is squashing
system.cpu0.iew.iewBlockCycles                   1278                       # Number of cycles IEW is blocking
system.cpu0.iew.iewUnblockCycles                  228                       # Number of cycles IEW is unblocking
system.cpu0.iew.iewDispatchedInsts            8296465                       # Number of instructions dispatched to IQ
system.cpu0.iew.iewDispSquashedInsts                0                       # Number of squashed instructions skipped by dispatch
system.cpu0.iew.iewDispLoadInsts              2129028                       # Number of dispatched load instructions
system.cpu0.iew.iewDispStoreInsts               82628                       # Number of dispatched store instructions
system.cpu0.iew.iewDispNonSpecInsts               103                       # Number of dispatched non-speculative instructions
system.cpu0.iew.iewIQFullEvents                    10                       # Number of times the IQ has become full, causing a stall
system.cpu0.iew.iewLSQFullEvents                   84                       # Number of times the LSQ has become full, causing a stall
system.cpu0.iew.memOrderViolationEvents            20                       # Number of memory order violations
system.cpu0.iew.predictedTakenIncorrect          4412                       # Number of branches that were predicted taken incorrectly
system.cpu0.iew.predictedNotTakenIncorrect          967                       # Number of branches that were predicted not taken incorrectly
system.cpu0.iew.branchMispredicts                5379                       # Number of branch mispredicts detected at execute
system.cpu0.iew.iewExecutedInsts              8279714                       # Number of executed instructions
system.cpu0.iew.iewExecLoadInsts              2120943                       # Number of load instructions executed
system.cpu0.iew.iewExecSquashedInsts             9179                       # Number of squashed instructions skipped in execute
system.cpu0.iew.exec_swp                            0                       # number of swp insts executed
system.cpu0.iew.exec_nop                           15                       # number of nop insts executed
system.cpu0.iew.exec_refs                     2202901                       # number of memory reference insts executed
system.cpu0.iew.exec_branches                  565189                       # Number of branches executed
system.cpu0.iew.exec_stores                     81958                       # Number of stores executed
system.cpu0.iew.exec_rate                    1.392444                       # Inst execution rate
system.cpu0.iew.wb_sent                       8276092                       # cumulative count of insts sent to commit
system.cpu0.iew.wb_count                      8275972                       # cumulative count of insts written-back
system.cpu0.iew.wb_producers                  5712591                       # num instructions producing a value
system.cpu0.iew.wb_consumers                  7610866                       # num instructions consuming a value
system.cpu0.iew.wb_penalized                        0                       # number of instrctions required to write to 'other' IQ
system.cpu0.iew.wb_rate                      1.391815                       # insts written-back per cycle
system.cpu0.iew.wb_fanout                    0.750584                       # average fanout of values written-back
system.cpu0.iew.wb_penalized_rate                   0                       # fraction of instructions written-back that wrote to 'other' IQ
system.cpu0.commit.commitSquashedInsts          22969                       # The number of squashed insts skipped by commit
system.cpu0.commit.commitNonSpecStalls            192                       # The number of times commit has been forced to stall to communicate backwards
system.cpu0.commit.branchMispredicts             5319                       # The number of times a branch was mispredicted
system.cpu0.commit.committed_per_cycle::samples      5899713                       # Number of insts commited each cycle
system.cpu0.commit.committed_per_cycle::mean     1.401239                       # Number of insts commited each cycle
system.cpu0.commit.committed_per_cycle::stdev     1.963037                       # Number of insts commited each cycle
system.cpu0.commit.committed_per_cycle::underflows            0      0.00%      0.00% # Number of insts commited each cycle
system.cpu0.commit.committed_per_cycle::0      2641672     44.78%     44.78% # Number of insts commited each cycle
system.cpu0.commit.committed_per_cycle::1      1404501     23.81%     68.58% # Number of insts commited each cycle
system.cpu0.commit.committed_per_cycle::2       764485     12.96%     81.54% # Number of insts commited each cycle
system.cpu0.commit.committed_per_cycle::3       431361      7.31%     88.85% # Number of insts commited each cycle
system.cpu0.commit.committed_per_cycle::4         5263      0.09%     88.94% # Number of insts commited each cycle
system.cpu0.commit.committed_per_cycle::5       347535      5.89%     94.83% # Number of insts commited each cycle
system.cpu0.commit.committed_per_cycle::6        33034      0.56%     95.39% # Number of insts commited each cycle
system.cpu0.commit.committed_per_cycle::7        92476      1.57%     96.96% # Number of insts commited each cycle
system.cpu0.commit.committed_per_cycle::8       179386      3.04%    100.00% # Number of insts commited each cycle
system.cpu0.commit.committed_per_cycle::overflows            0      0.00%    100.00% # Number of insts commited each cycle
system.cpu0.commit.committed_per_cycle::min_value            0                       # Number of insts commited each cycle
system.cpu0.commit.committed_per_cycle::max_value            8                       # Number of insts commited each cycle
system.cpu0.commit.committed_per_cycle::total      5899713                       # Number of insts commited each cycle
system.cpu0.commit.committedInsts             8258978                       # Number of instructions committed
system.cpu0.commit.committedOps               8266905                       # Number of ops (including micro ops) committed
system.cpu0.commit.swp_count                        0                       # Number of s/w prefetches committed
system.cpu0.commit.refs                       2198462                       # Number of memory references committed
system.cpu0.commit.loads                      2116747                       # Number of loads committed
system.cpu0.commit.membars                        113                       # Number of memory barriers committed
system.cpu0.commit.branches                    564618                       # Number of branches committed
system.cpu0.commit.fp_insts                        28                       # Number of committed floating point instructions.
system.cpu0.commit.int_insts                  7702798                       # Number of committed integer instructions.
system.cpu0.commit.function_calls                 294                       # Number of function calls committed.
system.cpu0.commit.op_class_0::No_OpClass            0      0.00%      0.00% # Class of committed instruction
system.cpu0.commit.op_class_0::IntAlu         4462780     53.98%     53.98% # Class of committed instruction
system.cpu0.commit.op_class_0::IntMult        1605660     19.42%     73.41% # Class of committed instruction
system.cpu0.commit.op_class_0::IntDiv               0      0.00%     73.41% # Class of committed instruction
system.cpu0.commit.op_class_0::FloatAdd             0      0.00%     73.41% # Class of committed instruction
system.cpu0.commit.op_class_0::FloatCmp             0      0.00%     73.41% # Class of committed instruction
system.cpu0.commit.op_class_0::FloatCvt             0      0.00%     73.41% # Class of committed instruction
system.cpu0.commit.op_class_0::FloatMult            0      0.00%     73.41% # Class of committed instruction
system.cpu0.commit.op_class_0::FloatDiv             0      0.00%     73.41% # Class of committed instruction
system.cpu0.commit.op_class_0::FloatSqrt            0      0.00%     73.41% # Class of committed instruction
system.cpu0.commit.op_class_0::SimdAdd              0      0.00%     73.41% # Class of committed instruction
system.cpu0.commit.op_class_0::SimdAddAcc            0      0.00%     73.41% # Class of committed instruction
system.cpu0.commit.op_class_0::SimdAlu              0      0.00%     73.41% # Class of committed instruction
system.cpu0.commit.op_class_0::SimdCmp              0      0.00%     73.41% # Class of committed instruction
system.cpu0.commit.op_class_0::SimdCvt              0      0.00%     73.41% # Class of committed instruction
system.cpu0.commit.op_class_0::SimdMisc             0      0.00%     73.41% # Class of committed instruction
system.cpu0.commit.op_class_0::SimdMult             0      0.00%     73.41% # Class of committed instruction
system.cpu0.commit.op_class_0::SimdMultAcc            0      0.00%     73.41% # Class of committed instruction
system.cpu0.commit.op_class_0::SimdShift            0      0.00%     73.41% # Class of committed instruction
system.cpu0.commit.op_class_0::SimdShiftAcc            0      0.00%     73.41% # Class of committed instruction
system.cpu0.commit.op_class_0::SimdSqrt             0      0.00%     73.41% # Class of committed instruction
system.cpu0.commit.op_class_0::SimdFloatAdd            0      0.00%     73.41% # Class of committed instruction
system.cpu0.commit.op_class_0::SimdFloatAlu            0      0.00%     73.41% # Class of committed instruction
system.cpu0.commit.op_class_0::SimdFloatCmp            0      0.00%     73.41% # Class of committed instruction
system.cpu0.commit.op_class_0::SimdFloatCvt            0      0.00%     73.41% # Class of committed instruction
system.cpu0.commit.op_class_0::SimdFloatDiv            0      0.00%     73.41% # Class of committed instruction
system.cpu0.commit.op_class_0::SimdFloatMisc            3      0.00%     73.41% # Class of committed instruction
system.cpu0.commit.op_class_0::SimdFloatMult            0      0.00%     73.41% # Class of committed instruction
[...]
system.l2.overall_mshr_miss_latency::cpu2.data     37426500                       # number of overall MSHR miss cycles
system.l2.overall_mshr_miss_latency::cpu3.inst       458750                       # number of overall MSHR miss cycles
system.l2.overall_mshr_miss_latency::cpu3.data     36921250                       # number of overall MSHR miss cycles
system.l2.overall_mshr_miss_latency::l2.prefetcher    236310661                       # number of overall MSHR miss cycles
system.l2.overall_mshr_miss_latency::total    436458912                       # number of overall MSHR miss cycles
system.l2.ReadReq_mshr_miss_rate::cpu0.inst     0.816485                       # mshr miss rate for ReadReq accesses
system.l2.ReadReq_mshr_miss_rate::cpu0.data     0.000838                       # mshr miss rate for ReadReq accesses
system.l2.ReadReq_mshr_miss_rate::cpu1.inst     0.296296                       # mshr miss rate for ReadReq accesses
system.l2.ReadReq_mshr_miss_rate::cpu1.data     0.000013                       # mshr miss rate for ReadReq accesses
system.l2.ReadReq_mshr_miss_rate::cpu2.inst     0.018519                       # mshr miss rate for ReadReq accesses
system.l2.ReadReq_mshr_miss_rate::cpu2.data     0.000017                       # mshr miss rate for ReadReq accesses
system.l2.ReadReq_mshr_miss_rate::cpu3.inst     0.111111                       # mshr miss rate for ReadReq accesses
system.l2.ReadReq_mshr_miss_rate::total      0.001217                       # mshr miss rate for ReadReq accesses
system.l2.HardPFReq_mshr_miss_rate::l2.prefetcher          inf                       # mshr miss rate for HardPFReq accesses
system.l2.HardPFReq_mshr_miss_rate::total          inf                       # mshr miss rate for HardPFReq accesses
system.l2.UpgradeReq_mshr_miss_rate::cpu0.data     0.800000                       # mshr miss rate for UpgradeReq accesses
system.l2.UpgradeReq_mshr_miss_rate::total     0.800000                       # mshr miss rate for UpgradeReq accesses
system.l2.ReadExReq_mshr_miss_rate::cpu0.data     0.076472                       # mshr miss rate for ReadExReq accesses
system.l2.ReadExReq_mshr_miss_rate::cpu1.data     0.125854                       # mshr miss rate for ReadExReq accesses
system.l2.ReadExReq_mshr_miss_rate::cpu2.data     0.125854                       # mshr miss rate for ReadExReq accesses
system.l2.ReadExReq_mshr_miss_rate::cpu3.data     0.126098                       # mshr miss rate for ReadExReq accesses
system.l2.ReadExReq_mshr_miss_rate::total     0.105926                       # mshr miss rate for ReadExReq accesses
system.l2.demand_mshr_miss_rate::cpu0.inst     0.816485                       # mshr miss rate for demand accesses
system.l2.demand_mshr_miss_rate::cpu0.data     0.005248                       # mshr miss rate for demand accesses
system.l2.demand_mshr_miss_rate::cpu1.inst     0.296296                       # mshr miss rate for demand accesses
system.l2.demand_mshr_miss_rate::cpu1.data     0.003360                       # mshr miss rate for demand accesses
system.l2.demand_mshr_miss_rate::cpu2.inst     0.018519                       # mshr miss rate for demand accesses
system.l2.demand_mshr_miss_rate::cpu2.data     0.004155                       # mshr miss rate for demand accesses
system.l2.demand_mshr_miss_rate::cpu3.inst     0.111111                       # mshr miss rate for demand accesses
system.l2.demand_mshr_miss_rate::cpu3.data     0.003588                       # mshr miss rate for demand accesses
system.l2.demand_mshr_miss_rate::total       0.005032                       # mshr miss rate for demand accesses
system.l2.overall_mshr_miss_rate::cpu0.inst     0.816485                       # mshr miss rate for overall accesses
system.l2.overall_mshr_miss_rate::cpu0.data     0.005248                       # mshr miss rate for overall accesses
system.l2.overall_mshr_miss_rate::cpu1.inst     0.296296                       # mshr miss rate for overall accesses
system.l2.overall_mshr_miss_rate::cpu1.data     0.003360                       # mshr miss rate for overall accesses
system.l2.overall_mshr_miss_rate::cpu2.inst     0.018519                       # mshr miss rate for overall accesses
system.l2.overall_mshr_miss_rate::cpu2.data     0.004155                       # mshr miss rate for overall accesses
system.l2.overall_mshr_miss_rate::cpu3.inst     0.111111                       # mshr miss rate for overall accesses
system.l2.overall_mshr_miss_rate::cpu3.data     0.003588                       # mshr miss rate for overall accesses
system.l2.overall_mshr_miss_rate::l2.prefetcher          inf                       # mshr miss rate for overall accesses
system.l2.overall_mshr_miss_rate::total      0.012418                       # mshr miss rate for overall accesses
system.l2.ReadReq_avg_mshr_miss_latency::cpu0.inst 62903.333333                       # average ReadReq mshr miss latency
system.l2.ReadReq_avg_mshr_miss_latency::cpu0.data 67502.212389                       # average ReadReq mshr miss latency
system.l2.ReadReq_avg_mshr_miss_latency::cpu1.inst        83625                       # average ReadReq mshr miss latency
system.l2.ReadReq_avg_mshr_miss_latency::cpu1.data        66000                       # average ReadReq mshr miss latency
system.l2.ReadReq_avg_mshr_miss_latency::cpu2.inst        66000                       # average ReadReq mshr miss latency
system.l2.ReadReq_avg_mshr_miss_latency::cpu2.data        66000                       # average ReadReq mshr miss latency
system.l2.ReadReq_avg_mshr_miss_latency::cpu3.inst 76458.333333                       # average ReadReq mshr miss latency
system.l2.ReadReq_avg_mshr_miss_latency::total 64328.947368                       # average ReadReq mshr miss latency
system.l2.HardPFReq_avg_mshr_miss_latency::l2.prefetcher 56425.659265                       # average HardPFReq mshr miss latency
system.l2.HardPFReq_avg_mshr_miss_latency::total 56425.659265                       # average HardPFReq mshr miss latency
system.l2.UpgradeReq_avg_mshr_miss_latency::cpu0.data        13751                       # average UpgradeReq mshr miss latency
system.l2.UpgradeReq_avg_mshr_miss_latency::total        13751                       # average UpgradeReq mshr miss latency
system.l2.ReadExReq_avg_mshr_miss_latency::cpu0.data 72444.837246                       # average ReadExReq mshr miss latency
system.l2.ReadExReq_avg_mshr_miss_latency::cpu1.data 71437.015504                       # average ReadExReq mshr miss latency
system.l2.ReadExReq_avg_mshr_miss_latency::cpu2.data 72276.162791                       # average ReadExReq mshr miss latency
system.l2.ReadExReq_avg_mshr_miss_latency::cpu3.data 71414.410058                       # average ReadExReq mshr miss latency
system.l2.ReadExReq_avg_mshr_miss_latency::total 71923.903565                       # average ReadExReq mshr miss latency
system.l2.demand_avg_mshr_miss_latency::cpu0.inst 62903.333333                       # average overall mshr miss latency
system.l2.demand_avg_mshr_miss_latency::cpu0.data 71702.128989                       # average overall mshr miss latency
system.l2.demand_avg_mshr_miss_latency::cpu1.inst        83625                       # average overall mshr miss latency
system.l2.demand_avg_mshr_miss_latency::cpu1.data 71416.023166                       # average overall mshr miss latency
system.l2.demand_avg_mshr_miss_latency::cpu2.inst        66000                       # average overall mshr miss latency
system.l2.demand_avg_mshr_miss_latency::cpu2.data 72251.930502                       # average overall mshr miss latency
system.l2.demand_avg_mshr_miss_latency::cpu3.inst 76458.333333                       # average overall mshr miss latency
system.l2.demand_avg_mshr_miss_latency::cpu3.data 71414.410058                       # average overall mshr miss latency
system.l2.demand_avg_mshr_miss_latency::total 70153.610585                       # average overall mshr miss latency
system.l2.overall_avg_mshr_miss_latency::cpu0.inst 62903.333333                       # average overall mshr miss latency
system.l2.overall_avg_mshr_miss_latency::cpu0.data 71702.128989                       # average overall mshr miss latency
system.l2.overall_avg_mshr_miss_latency::cpu1.inst        83625                       # average overall mshr miss latency
system.l2.overall_avg_mshr_miss_latency::cpu1.data 71416.023166                       # average overall mshr miss latency
system.l2.overall_avg_mshr_miss_latency::cpu2.inst        66000                       # average overall mshr miss latency
system.l2.overall_avg_mshr_miss_latency::cpu2.data 72251.930502                       # average overall mshr miss latency
system.l2.overall_avg_mshr_miss_latency::cpu3.inst 76458.333333                       # average overall mshr miss latency
system.l2.overall_avg_mshr_miss_latency::cpu3.data 71414.410058                       # average overall mshr miss latency
system.l2.overall_avg_mshr_miss_latency::l2.prefetcher 56425.659265                       # average overall mshr miss latency
system.l2.overall_avg_mshr_miss_latency::total 61988.199403                       # average overall mshr miss latency
system.l2.no_allocate_misses                        0                       # Number of misses that were no-allocate
system.membus.trans_dist::ReadReq                4830                       # Transaction distribution
system.membus.trans_dist::ReadResp               4829                       # Transaction distribution
system.membus.trans_dist::UpgradeReq                9                       # Transaction distribution
system.membus.trans_dist::SCUpgradeReq              8                       # Transaction distribution
system.membus.trans_dist::UpgradeResp               5                       # Transaction distribution
system.membus.trans_dist::ReadExReq              2187                       # Transaction distribution
system.membus.trans_dist::ReadExResp             2187                       # Transaction distribution
system.membus.pkt_count_system.l2.mem_side::system.mem_ctrls.port        14055                       # Packet count per connected master and slave (bytes)
system.membus.pkt_count::total                  14055                       # Packet count per connected master and slave (bytes)
system.membus.pkt_size_system.l2.mem_side::system.mem_ctrls.port       449024                       # Cumulative packet size per connected master and slave (bytes)
system.membus.pkt_size::total                  449024                       # Cumulative packet size per connected master and slave (bytes)
system.membus.snoops                               12                       # Total snoops (count)
system.membus.snoop_fanout::samples              7034                       # Request fanout histogram
system.membus.snoop_fanout::mean                    0                       # Request fanout histogram
system.membus.snoop_fanout::stdev                   0                       # Request fanout histogram
system.membus.snoop_fanout::underflows              0      0.00%      0.00% # Request fanout histogram
system.membus.snoop_fanout::0                    7034    100.00%    100.00% # Request fanout histogram
system.membus.snoop_fanout::1                       0      0.00%    100.00% # Request fanout histogram
system.membus.snoop_fanout::overflows               0      0.00%    100.00% # Request fanout histogram
system.membus.snoop_fanout::min_value               0                       # Request fanout histogram
system.membus.snoop_fanout::max_value               0                       # Request fanout histogram
system.membus.snoop_fanout::total                7034                       # Request fanout histogram
system.membus.reqLayer0.occupancy             9615775                       # Layer occupancy (ticks)
system.membus.reqLayer0.utilization               0.3                       # Layer utilization (%)
system.membus.respLayer1.occupancy           36810838                       # Layer occupancy (ticks)
system.membus.respLayer1.utilization              1.2                       # Layer utilization (%)
system.tol2bus.trans_dist::ReadReq            2119273                       # Transaction distribution
system.tol2bus.trans_dist::ReadResp           2119271                       # Transaction distribution
system.tol2bus.trans_dist::Writeback           564789                       # Transaction distribution
system.tol2bus.trans_dist::HardPFReq             4701                       # Transaction distribution
system.tol2bus.trans_dist::UpgradeReq               9                       # Transaction distribution
system.tol2bus.trans_dist::SCUpgradeReq            10                       # Transaction distribution
system.tol2bus.trans_dist::UpgradeResp             19                       # Transaction distribution
system.tol2bus.trans_dist::SCUpgradeFailReq            1                       # Transaction distribution
system.tol2bus.trans_dist::UpgradeFailResp            1                       # Transaction distribution
system.tol2bus.trans_dist::ReadExReq            20662                       # Transaction distribution
system.tol2bus.trans_dist::ReadExResp           20662                       # Transaction distribution
system.tol2bus.pkt_count_system.cpu0.icache.mem_side::system.l2.cpu_side         1284                       # Packet count per connected master and slave (bytes)
system.tol2bus.pkt_count_system.cpu0.dcache.mem_side::system.l2.cpu_side       824394                       # Packet count per connected master and slave (bytes)
system.tol2bus.pkt_count_system.cpu1.icache.mem_side::system.l2.cpu_side          108                       # Packet count per connected master and slave (bytes)
system.tol2bus.pkt_count_system.cpu1.dcache.mem_side::system.l2.cpu_side       841622                       # Packet count per connected master and slave (bytes)
system.tol2bus.pkt_count_system.cpu2.icache.mem_side::system.l2.cpu_side          108                       # Packet count per connected master and slave (bytes)
system.tol2bus.pkt_count_system.cpu2.dcache.mem_side::system.l2.cpu_side       782628                       # Packet count per connected master and slave (bytes)
system.tol2bus.pkt_count_system.cpu3.icache.mem_side::system.l2.cpu_side          108                       # Packet count per connected master and slave (bytes)
system.tol2bus.pkt_count_system.cpu3.dcache.mem_side::system.l2.cpu_side       821495                       # Packet count per connected master and slave (bytes)
system.tol2bus.pkt_count::total               3271747                       # Packet count per connected master and slave (bytes)
system.tol2bus.pkt_size_system.cpu0.icache.mem_side::system.l2.cpu_side        41024                       # Cumulative packet size per connected master and slave (bytes)
system.tol2bus.pkt_size_system.cpu0.dcache.mem_side::system.l2.cpu_side     18308288                       # Cumulative packet size per connected master and slave (bytes)
system.tol2bus.pkt_size_system.cpu1.icache.mem_side::system.l2.cpu_side         3456                       # Cumulative packet size per connected master and slave (bytes)
system.tol2bus.pkt_size_system.cpu1.dcache.mem_side::system.l2.cpu_side     19712704                       # Cumulative packet size per connected master and slave (bytes)
system.tol2bus.pkt_size_system.cpu2.icache.mem_side::system.l2.cpu_side         3456                       # Cumulative packet size per connected master and slave (bytes)
system.tol2bus.pkt_size_system.cpu2.dcache.mem_side::system.l2.cpu_side     15937408                       # Cumulative packet size per connected master and slave (bytes)
system.tol2bus.pkt_size_system.cpu3.icache.mem_side::system.l2.cpu_side         3456                       # Cumulative packet size per connected master and slave (bytes)
system.tol2bus.pkt_size_system.cpu3.dcache.mem_side::system.l2.cpu_side     18424448                       # Cumulative packet size per connected master and slave (bytes)
system.tol2bus.pkt_size::total               72434240                       # Cumulative packet size per connected master and slave (bytes)
system.tol2bus.snoops                         1577651                       # Total snoops (count)
system.tol2bus.snoop_fanout::samples          2709445                       # Request fanout histogram
system.tol2bus.snoop_fanout::mean            7.001735                       # Request fanout histogram
system.tol2bus.snoop_fanout::stdev           0.041618                       # Request fanout histogram
system.tol2bus.snoop_fanout::underflows             0      0.00%      0.00% # Request fanout histogram
system.tol2bus.snoop_fanout::0                      0      0.00%      0.00% # Request fanout histogram
system.tol2bus.snoop_fanout::1                      0      0.00%      0.00% # Request fanout histogram
system.tol2bus.snoop_fanout::2                      0      0.00%      0.00% # Request fanout histogram
system.tol2bus.snoop_fanout::3                      0      0.00%      0.00% # Request fanout histogram
system.tol2bus.snoop_fanout::4                      0      0.00%      0.00% # Request fanout histogram
system.tol2bus.snoop_fanout::5                      0      0.00%      0.00% # Request fanout histogram
system.tol2bus.snoop_fanout::6                      0      0.00%      0.00% # Request fanout histogram
system.tol2bus.snoop_fanout::7                2704744     99.83%     99.83% # Request fanout histogram
system.tol2bus.snoop_fanout::8                   4701      0.17%    100.00% # Request fanout histogram
system.tol2bus.snoop_fanout::overflows              0      0.00%    100.00% # Request fanout histogram
system.tol2bus.snoop_fanout::min_value              7                       # Request fanout histogram
system.tol2bus.snoop_fanout::max_value              8                       # Request fanout histogram
system.tol2bus.snoop_fanout::total            2709445                       # Request fanout histogram
system.tol2bus.reqLayer0.occupancy         1917161000                       # Layer occupancy (ticks)
system.tol2bus.reqLayer0.utilization             64.5                       # Layer utilization (%)
system.tol2bus.respLayer0.occupancy           1069235                       # Layer occupancy (ticks)
system.tol2bus.respLayer0.utilization             0.0                       # Layer utilization (%)
system.tol2bus.respLayer1.occupancy         936308706                       # Layer occupancy (ticks)
system.tol2bus.respLayer1.utilization            31.5                       # Layer utilization (%)
system.tol2bus.respLayer4.occupancy             85991                       # Layer occupancy (ticks)
system.tol2bus.respLayer4.utilization             0.0                       # Layer utilization (%)
system.tol2bus.respLayer5.occupancy         921524324                       # Layer occupancy (ticks)
system.tol2bus.respLayer5.utilization            31.0                       # Layer utilization (%)
system.tol2bus.respLayer8.occupancy             88217                       # Layer occupancy (ticks)
system.tol2bus.respLayer8.utilization             0.0                       # Layer utilization (%)
system.tol2bus.respLayer9.occupancy         938215093                       # Layer occupancy (ticks)
system.tol2bus.respLayer9.utilization            31.6                       # Layer utilization (%)
system.tol2bus.respLayer12.occupancy            86473                       # Layer occupancy (ticks)
system.tol2bus.respLayer12.utilization            0.0                       # Layer utilization (%)
system.tol2bus.respLayer13.occupancy        929816750                       # Layer occupancy (ticks)
system.tol2bus.respLayer13.utilization           31.3                       # Layer utilization (%)

---------- End Simulation Statistics   ----------
