
---------- Begin Simulation Statistics ----------
sim_seconds                                  0.001661                       # Number of seconds simulated
sim_ticks                                  1661220500                       # Number of ticks simulated
final_tick                                 1661220500                       # Number of ticks from beginning of simulation (restored from checkpoints and never reset)
sim_freq                                 1000000000000                       # Frequency of simulated ticks
host_inst_rate                                 129010                       # Simulator instruction rate (inst/s)
host_op_rate                                   129106                       # Simulator op (including micro ops) rate (op/s)
host_tick_rate                                6678361                       # Simulator tick rate (ticks/s)
host_mem_usage                                 683812                       # Number of bytes of host memory used
host_seconds                                   248.75                       # Real time elapsed on the host
sim_insts                                    32090725                       # Number of instructions simulated
sim_ops                                      32114706                       # Number of ops (including micro ops) simulated
system.voltage_domain.voltage                       1                       # Voltage in Volts
system.clk_domain.clock                          1000                       # Clock period in ticks
system.mem_ctrls.bytes_read::cpu0.inst          32896                       # Number of bytes read from this memory
system.mem_ctrls.bytes_read::cpu0.data          32192                       # Number of bytes read from this memory
system.mem_ctrls.bytes_read::cpu1.inst            768                       # Number of bytes read from this memory
system.mem_ctrls.bytes_read::cpu1.data          16704                       # Number of bytes read from this memory
system.mem_ctrls.bytes_read::cpu2.inst            384                       # Number of bytes read from this memory
system.mem_ctrls.bytes_read::cpu2.data          16704                       # Number of bytes read from this memory
system.mem_ctrls.bytes_read::cpu3.inst            256                       # Number of bytes read from this memory
system.mem_ctrls.bytes_read::cpu3.data          16704                       # Number of bytes read from this memory
system.mem_ctrls.bytes_read::cpu4.inst            320                       # Number of bytes read from this memory
system.mem_ctrls.bytes_read::cpu4.data          16768                       # Number of bytes read from this memory
system.mem_ctrls.bytes_read::cpu5.data          16704                       # Number of bytes read from this memory
system.mem_ctrls.bytes_read::cpu6.inst             64                       # Number of bytes read from this memory
system.mem_ctrls.bytes_read::cpu6.data          16640                       # Number of bytes read from this memory
system.mem_ctrls.bytes_read::cpu7.inst            320                       # Number of bytes read from this memory
system.mem_ctrls.bytes_read::cpu7.data          16768                       # Number of bytes read from this memory
system.mem_ctrls.bytes_read::l2.prefetcher       266752                       # Number of bytes read from this memory
system.mem_ctrls.bytes_read::total             450944                       # Number of bytes read from this memory
system.mem_ctrls.bytes_inst_read::cpu0.inst        32896                       # Number of instructions bytes read from this memory
system.mem_ctrls.bytes_inst_read::cpu1.inst          768                       # Number of instructions bytes read from this memory
system.mem_ctrls.bytes_inst_read::cpu2.inst          384                       # Number of instructions bytes read from this memory
system.mem_ctrls.bytes_inst_read::cpu3.inst          256                       # Number of instructions bytes read from this memory
system.mem_ctrls.bytes_inst_read::cpu4.inst          320                       # Number of instructions bytes read from this memory
system.mem_ctrls.bytes_inst_read::cpu6.inst           64                       # Number of instructions bytes read from this memory
system.mem_ctrls.bytes_inst_read::cpu7.inst          320                       # Number of instructions bytes read from this memory
system.mem_ctrls.bytes_inst_read::total         35008                       # Number of instructions bytes read from this memory
system.mem_ctrls.num_reads::cpu0.inst             514                       # Number of read requests responded to by this memory
system.mem_ctrls.num_reads::cpu0.data             503                       # Number of read requests responded to by this memory
system.mem_ctrls.num_reads::cpu1.inst              12                       # Number of read requests responded to by this memory
system.mem_ctrls.num_reads::cpu1.data             261                       # Number of read requests responded to by this memory
system.mem_ctrls.num_reads::cpu2.inst               6                       # Number of read requests responded to by this memory
system.mem_ctrls.num_reads::cpu2.data             261                       # Number of read requests responded to by this memory
system.mem_ctrls.num_reads::cpu3.inst               4                       # Number of read requests responded to by this memory
system.mem_ctrls.num_reads::cpu3.data             261                       # Number of read requests responded to by this memory
system.mem_ctrls.num_reads::cpu4.inst               5                       # Number of read requests responded to by this memory
system.mem_ctrls.num_reads::cpu4.data             262                       # Number of read requests responded to by this memory
system.mem_ctrls.num_reads::cpu5.data             261                       # Number of read requests responded to by this memory
system.mem_ctrls.num_reads::cpu6.inst               1                       # Number of read requests responded to by this memory
system.mem_ctrls.num_reads::cpu6.data             260                       # Number of read requests responded to by this memory
system.mem_ctrls.num_reads::cpu7.inst               5                       # Number of read requests responded to by this memory
system.mem_ctrls.num_reads::cpu7.data             262                       # Number of read requests responded to by this memory
system.mem_ctrls.num_reads::l2.prefetcher         4168                       # Number of read requests responded to by this memory
system.mem_ctrls.num_reads::total                7046                       # Number of read requests responded to by this memory
system.mem_ctrls.bw_read::cpu0.inst          19802308                       # Total read bandwidth from this memory (bytes/s)
system.mem_ctrls.bw_read::cpu0.data          19378523                       # Total read bandwidth from this memory (bytes/s)
system.mem_ctrls.bw_read::cpu1.inst            462311                       # Total read bandwidth from this memory (bytes/s)
system.mem_ctrls.bw_read::cpu1.data          10055258                       # Total read bandwidth from this memory (bytes/s)
system.mem_ctrls.bw_read::cpu2.inst            231155                       # Total read bandwidth from this memory (bytes/s)
system.mem_ctrls.bw_read::cpu2.data          10055258                       # Total read bandwidth from this memory (bytes/s)
system.mem_ctrls.bw_read::cpu3.inst            154104                       # Total read bandwidth from this memory (bytes/s)
system.mem_ctrls.bw_read::cpu3.data          10055258                       # Total read bandwidth from this memory (bytes/s)
system.mem_ctrls.bw_read::cpu4.inst            192629                       # Total read bandwidth from this memory (bytes/s)
system.mem_ctrls.bw_read::cpu4.data          10093783                       # Total read bandwidth from this memory (bytes/s)
system.mem_ctrls.bw_read::cpu5.data          10055258                       # Total read bandwidth from this memory (bytes/s)
system.mem_ctrls.bw_read::cpu6.inst             38526                       # Total read bandwidth from this memory (bytes/s)
system.mem_ctrls.bw_read::cpu6.data          10016732                       # Total read bandwidth from this memory (bytes/s)
system.mem_ctrls.bw_read::cpu7.inst            192629                       # Total read bandwidth from this memory (bytes/s)
system.mem_ctrls.bw_read::cpu7.data          10093783                       # Total read bandwidth from this memory (bytes/s)
system.mem_ctrls.bw_read::l2.prefetcher     160575914                       # Total read bandwidth from this memory (bytes/s)
system.mem_ctrls.bw_read::total             271453428                       # Total read bandwidth from this memory (bytes/s)
system.mem_ctrls.bw_inst_read::cpu0.inst     19802308                       # Instruction read bandwidth from this memory (bytes/s)
system.mem_ctrls.bw_inst_read::cpu1.inst       462311                       # Instruction read bandwidth from this memory (bytes/s)
system.mem_ctrls.bw_inst_read::cpu2.inst       231155                       # Instruction read bandwidth from this memory (bytes/s)
system.mem_ctrls.bw_inst_read::cpu3.inst       154104                       # Instruction read bandwidth from this memory (bytes/s)
system.mem_ctrls.bw_inst_read::cpu4.inst       192629                       # Instruction read bandwidth from this memory (bytes/s)
system.mem_ctrls.bw_inst_read::cpu6.inst        38526                       # Instruction read bandwidth from this memory (bytes/s)
system.mem_ctrls.bw_inst_read::cpu7.inst       192629                       # Instruction read bandwidth from this memory (bytes/s)
system.mem_ctrls.bw_inst_read::total         21073662                       # Instruction read bandwidth from this memory (bytes/s)
system.mem_ctrls.bw_total::cpu0.inst         19802308                       # Total bandwidth to/from this memory (bytes/s)
system.mem_ctrls.bw_total::cpu0.data         19378523                       # Total bandwidth to/from this memory (bytes/s)
system.mem_ctrls.bw_total::cpu1.inst           462311                       # Total bandwidth to/from this memory (bytes/s)
system.mem_ctrls.bw_total::cpu1.data         10055258                       # Total bandwidth to/from this memory (bytes/s)
system.mem_ctrls.bw_total::cpu2.inst           231155                       # Total bandwidth to/from this memory (bytes/s)
system.mem_ctrls.bw_total::cpu2.data         10055258                       # Total bandwidth to/from this memory (bytes/s)
system.mem_ctrls.bw_total::cpu3.inst           154104                       # Total bandwidth to/from this memory (bytes/s)
system.mem_ctrls.bw_total::cpu3.data         10055258                       # Total bandwidth to/from this memory (bytes/s)
system.mem_ctrls.bw_total::cpu4.inst           192629                       # Total bandwidth to/from this memory (bytes/s)
system.mem_ctrls.bw_total::cpu4.data         10093783                       # Total bandwidth to/from this memory (bytes/s)
system.mem_ctrls.bw_total::cpu5.data         10055258                       # Total bandwidth to/from this memory (bytes/s)
system.mem_ctrls.bw_total::cpu6.inst            38526                       # Total bandwidth to/from this memory (bytes/s)
system.mem_ctrls.bw_total::cpu6.data         10016732                       # Total bandwidth to/from this memory (bytes/s)
system.mem_ctrls.bw_total::cpu7.inst           192629                       # Total bandwidth to/from this memory (bytes/s)
system.mem_ctrls.bw_total::cpu7.data         10093783                       # Total bandwidth to/from this memory (bytes/s)
system.mem_ctrls.bw_total::l2.prefetcher    160575914                       # Total bandwidth to/from this memory (bytes/s)
system.mem_ctrls.bw_total::total            271453428                       # Total bandwidth to/from this memory (bytes/s)
system.mem_ctrls.readReqs                        7046                       # Number of read requests accepted
system.mem_ctrls.writeReqs                          0                       # Number of write requests accepted
system.mem_ctrls.readBursts                      7046                       # Number of DRAM read bursts, including those serviced by the write queue
system.mem_ctrls.writeBursts                        0                       # Number of DRAM write bursts, including those merged in the write queue
system.mem_ctrls.bytesReadDRAM                 450944                       # Total number of bytes read from DRAM
system.mem_ctrls.bytesReadWrQ                       0                       # Total number of bytes read from write queue
system.mem_ctrls.bytesWritten                       0                       # Total number of bytes written to DRAM
system.mem_ctrls.bytesReadSys                  450944                       # Total read bytes from the system interface side
system.mem_ctrls.bytesWrittenSys                    0                       # Total written bytes from the system interface side
system.mem_ctrls.servicedByWrQ                      0                       # Number of DRAM read bursts serviced by the write queue
system.mem_ctrls.mergedWrBursts                     0                       # Number of DRAM write bursts merged with an existing one
system.mem_ctrls.neitherReadNorWriteReqs            6                       # Number of requests that are neither read nor write
system.mem_ctrls.perBankRdBursts::0               515                       # Per bank write bursts
system.mem_ctrls.perBankRdBursts::1               510                       # Per bank write bursts
system.mem_ctrls.perBankRdBursts::2               520                       # Per bank write bursts
system.mem_ctrls.perBankRdBursts::3               484                       # Per bank write bursts
system.mem_ctrls.perBankRdBursts::4               448                       # Per bank write bursts
system.mem_ctrls.perBankRdBursts::5               447                       # Per bank write bursts
system.mem_ctrls.perBankRdBursts::6               465                       # Per bank write bursts
system.mem_ctrls.perBankRdBursts::7               413                       # Per bank write bursts
system.mem_ctrls.perBankRdBursts::8               400                       # Per bank write bursts
system.mem_ctrls.perBankRdBursts::9               392                       # Per bank write bursts
system.mem_ctrls.perBankRdBursts::10              384                       # Per bank write bursts
system.mem_ctrls.perBankRdBursts::11              397                       # Per bank write bursts
system.mem_ctrls.perBankRdBursts::12              389                       # Per bank write bursts
system.mem_ctrls.perBankRdBursts::13              418                       # Per bank write bursts
system.mem_ctrls.perBankRdBursts::14              422                       # Per bank write bursts
system.mem_ctrls.perBankRdBursts::15              442                       # Per bank write bursts
system.mem_ctrls.perBankWrBursts::0                 0                       # Per bank write bursts
system.mem_ctrls.perBankWrBursts::1                 0                       # Per bank write bursts
system.mem_ctrls.perBankWrBursts::2                 0                       # Per bank write bursts
system.mem_ctrls.perBankWrBursts::3                 0                       # Per bank write bursts
system.mem_ctrls.perBankWrBursts::4                 0                       # Per bank write bursts
system.mem_ctrls.perBankWrBursts::5                 0                       # Per bank write bursts
system.mem_ctrls.perBankWrBursts::6                 0                       # Per bank write bursts
system.mem_ctrls.perBankWrBursts::7                 0                       # Per bank write bursts
system.mem_ctrls.perBankWrBursts::8                 0                       # Per bank write bursts
system.mem_ctrls.perBankWrBursts::9                 0                       # Per bank write bursts
system.mem_ctrls.perBankWrBursts::10                0                       # Per bank write bursts
system.mem_ctrls.perBankWrBursts::11                0                       # Per bank write bursts
system.mem_ctrls.perBankWrBursts::12                0                       # Per bank write bursts
system.mem_ctrls.perBankWrBursts::13                0                       # Per bank write bursts
system.mem_ctrls.perBankWrBursts::14                0                       # Per bank write bursts
system.mem_ctrls.perBankWrBursts::15                0                       # Per bank write bursts
system.mem_ctrls.numRdRetry                         0                       # Number of times read queue was full causing retry
system.mem_ctrls.numWrRetry                         0                       # Number of times write queue was full causing retry
system.mem_ctrls.totGap                    1661181500                       # Total gap between requests
system.mem_ctrls.readPktSize::0                     0                       # Read request sizes (log2)
system.mem_ctrls.readPktSize::1                     0                       # Read request sizes (log2)
system.mem_ctrls.readPktSize::2                     0                       # Read request sizes (log2)
system.mem_ctrls.readPktSize::3                     0                       # Read request sizes (log2)
system.mem_ctrls.readPktSize::4                     0                       # Read request sizes (log2)
system.mem_ctrls.readPktSize::5                     0                       # Read request sizes (log2)
system.mem_ctrls.readPktSize::6                  7046                       # Read request sizes (log2)
system.mem_ctrls.writePktSize::0                    0                       # Write request sizes (log2)
system.mem_ctrls.writePktSize::1                    0                       # Write request sizes (log2)
system.mem_ctrls.writePktSize::2                    0                       # Write request sizes (log2)
system.mem_ctrls.writePktSize::3                    0                       # Write request sizes (log2)
system.mem_ctrls.writePktSize::4                    0                       # Write request sizes (log2)
system.mem_ctrls.writePktSize::5                    0                       # Write request sizes (log2)
system.mem_ctrls.writePktSize::6                    0                       # Write request sizes (log2)
system.mem_ctrls.rdQLenPdf::0                    2658                       # What read queue length does an incoming req see
system.mem_ctrls.rdQLenPdf::1                    2075                       # What read queue length does an incoming req see
system.mem_ctrls.rdQLenPdf::2                     485                       # What read queue length does an incoming req see
system.mem_ctrls.rdQLenPdf::3                     365                       # What read queue length does an incoming req see
system.mem_ctrls.rdQLenPdf::4                     348                       # What read queue length does an incoming req see
system.mem_ctrls.rdQLenPdf::5                     344                       # What read queue length does an incoming req see
system.mem_ctrls.rdQLenPdf::6                     339                       # What read queue length does an incoming req see
system.mem_ctrls.rdQLenPdf::7                     340                       # What read queue length does an incoming req see
system.mem_ctrls.rdQLenPdf::8                      84                       # What read queue length does an incoming req see
system.mem_ctrls.rdQLenPdf::9                       7                       # What read queue length does an incoming req see
system.mem_ctrls.rdQLenPdf::10                      1                       # What read queue length does an incoming req see
system.mem_ctrls.rdQLenPdf::11                      0                       # What read queue length does an incoming req see
system.mem_ctrls.rdQLenPdf::12                      0                       # What read queue length does an incoming req see
system.mem_ctrls.rdQLenPdf::13                      0                       # What read queue length does an incoming req see
system.mem_ctrls.rdQLenPdf::14                      0                       # What read queue length does an incoming req see
system.mem_ctrls.rdQLenPdf::15                      0                       # What read queue length does an incoming req see
system.mem_ctrls.rdQLenPdf::16                      0                       # What read queue length does an incoming req see
system.mem_ctrls.rdQLenPdf::17                      0                       # What read queue length does an incoming req see
system.mem_ctrls.rdQLenPdf::18                      0                       # What read queue length does an incoming req see
system.mem_ctrls.rdQLenPdf::19                      0                       # What read queue length does an incoming req see
system.mem_ctrls.rdQLenPdf::20                      0                       # What read queue length does an incoming req see
system.mem_ctrls.rdQLenPdf::21                      0                       # What read queue length does an incoming req see
system.mem_ctrls.rdQLenPdf::22                      0                       # What read queue length does an incoming req see
system.mem_ctrls.rdQLenPdf::23                      0                       # What read queue length does an incoming req see
system.mem_ctrls.rdQLenPdf::24                      0                       # What read queue length does an incoming req see
system.mem_ctrls.rdQLenPdf::25                      0                       # What read queue length does an incoming req see
system.mem_ctrls.rdQLenPdf::26                      0                       # What read queue length does an incoming req see
system.mem_ctrls.rdQLenPdf::27                      0                       # What read queue length does an incoming req see
system.mem_ctrls.rdQLenPdf::28                      0                       # What read queue length does an incoming req see
system.mem_ctrls.rdQLenPdf::29                      0                       # What read queue length does an incoming req see
system.mem_ctrls.rdQLenPdf::30                      0                       # What read queue length does an incoming req see
system.mem_ctrls.rdQLenPdf::31                      0                       # What read queue length does an incoming req see
system.mem_ctrls.wrQLenPdf::0                       0                       # What write queue length does an incoming req see
system.mem_ctrls.wrQLenPdf::1                       0                       # What write queue length does an incoming req see
system.mem_ctrls.wrQLenPdf::2                       0                       # What write queue length does an incoming req see
system.mem_ctrls.wrQLenPdf::3                       0                       # What write queue length does an incoming req see
system.mem_ctrls.wrQLenPdf::4                       0                       # What write queue length does an incoming req see
system.mem_ctrls.wrQLenPdf::5                       0                       # What write queue length does an incoming req see
system.mem_ctrls.wrQLenPdf::6                       0                       # What write queue length does an incoming req see
system.mem_ctrls.wrQLenPdf::7                       0                       # What write queue length does an incoming req see
system.mem_ctrls.wrQLenPdf::8                       0                       # What write queue length does an incoming req see
system.mem_ctrls.wrQLenPdf::9                       0                       # What write queue length does an incoming req see
system.mem_ctrls.wrQLenPdf::10                      0                       # What write queue length does an incoming req see
system.mem_ctrls.wrQLenPdf::11                      0                       # What write queue length does an incoming req see
system.mem_ctrls.wrQLenPdf::12                      0                       # What write queue length does an incoming req see
system.mem_ctrls.wrQLenPdf::13                      0                       # What write queue length does an incoming req see
system.mem_ctrls.wrQLenPdf::14                      0                       # What write queue length does an incoming req see
system.mem_ctrls.wrQLenPdf::15                      0                       # What write queue length does an incoming req see
system.mem_ctrls.wrQLenPdf::16                      0                       # What write queue length does an incoming req see
system.mem_ctrls.wrQLenPdf::17                      0                       # What write queue length does an incoming req see
system.mem_ctrls.wrQLenPdf::18                      0                       # What write queue length does an incoming req see
system.mem_ctrls.wrQLenPdf::19                      0                       # What write queue length does an incoming req see
system.mem_ctrls.wrQLenPdf::20                      0                       # What write queue length does an incoming req see
system.mem_ctrls.wrQLenPdf::21                      0                       # What write queue length does an incoming req see
system.mem_ctrls.wrQLenPdf::22                      0                       # What write queue length does an incoming req see
system.mem_ctrls.wrQLenPdf::23                      0                       # What write queue length does an incoming req see
system.mem_ctrls.wrQLenPdf::24                      0                       # What write queue length does an incoming req see
system.mem_ctrls.wrQLenPdf::25                      0                       # What write queue length does an incoming req see
system.mem_ctrls.wrQLenPdf::26                      0                       # What write queue length does an incoming req see
system.mem_ctrls.wrQLenPdf::27                      0                       # What write queue length does an incoming req see
system.mem_ctrls.wrQLenPdf::28                      0                       # What write queue length does an incoming req see
system.mem_ctrls.wrQLenPdf::29                      0                       # What write queue length does an incoming req see
system.mem_ctrls.wrQLenPdf::30                      0                       # What write queue length does an incoming req see
system.mem_ctrls.wrQLenPdf::31                      0                       # What write queue length does an incoming req see
system.mem_ctrls.wrQLenPdf::32                      0                       # What write queue length does an incoming req see
system.mem_ctrls.wrQLenPdf::33                      0                       # What write queue length does an incoming req see
system.mem_ctrls.wrQLenPdf::34                      0                       # What write queue length does an incoming req see
system.mem_ctrls.wrQLenPdf::35                      0                       # What write queue length does an incoming req see
system.mem_ctrls.wrQLenPdf::36                      0                       # What write queue length does an incoming req see
system.mem_ctrls.wrQLenPdf::37                      0                       # What write queue length does an incoming req see
system.mem_ctrls.wrQLenPdf::38                      0                       # What write queue length does an incoming req see
system.mem_ctrls.wrQLenPdf::39                      0                       # What write queue length does an incoming req see
system.mem_ctrls.wrQLenPdf::40                      0                       # What write queue length does an incoming req see
system.mem_ctrls.wrQLenPdf::41                      0                       # What write queue length does an incoming req see
system.mem_ctrls.wrQLenPdf::42                      0                       # What write queue length does an incoming req see
system.mem_ctrls.wrQLenPdf::43                      0                       # What write queue length does an incoming req see
system.mem_ctrls.wrQLenPdf::44                      0                       # What write queue length does an incoming req see
system.mem_ctrls.wrQLenPdf::45                      0                       # What write queue length does an incoming req see
system.mem_ctrls.wrQLenPdf::46                      0                       # What write queue length does an incoming req see
system.mem_ctrls.wrQLenPdf::47                      0                       # What write queue length does an incoming req see
system.mem_ctrls.wrQLenPdf::48                      0                       # What write queue length does an incoming req see
system.mem_ctrls.wrQLenPdf::49                      0                       # What write queue length does an incoming req see
system.mem_ctrls.wrQLenPdf::50                      0                       # What write queue length does an incoming req see
system.mem_ctrls.wrQLenPdf::51                      0                       # What write queue length does an incoming req see
system.mem_ctrls.wrQLenPdf::52                      0                       # What write queue length does an incoming req see
system.mem_ctrls.wrQLenPdf::53                      0                       # What write queue length does an incoming req see
system.mem_ctrls.wrQLenPdf::54                      0                       # What write queue length does an incoming req see
system.mem_ctrls.wrQLenPdf::55                      0                       # What write queue length does an incoming req see
system.mem_ctrls.wrQLenPdf::56                      0                       # What write queue length does an incoming req see
system.mem_ctrls.wrQLenPdf::57                      0                       # What write queue length does an incoming req see
system.mem_ctrls.wrQLenPdf::58                      0                       # What write queue length does an incoming req see
system.mem_ctrls.wrQLenPdf::59                      0                       # What write queue length does an incoming req see
system.mem_ctrls.wrQLenPdf::60                      0                       # What write queue length does an incoming req see
system.mem_ctrls.wrQLenPdf::61                      0                       # What write queue length does an incoming req see
system.mem_ctrls.wrQLenPdf::62                      0                       # What write queue length does an incoming req see
system.mem_ctrls.wrQLenPdf::63                      0                       # What write queue length does an incoming req see
system.mem_ctrls.bytesPerActivate::samples         2091                       # Bytes accessed per row activation
system.mem_ctrls.bytesPerActivate::mean    214.894309                       # Bytes accessed per row activation
system.mem_ctrls.bytesPerActivate::gmean   115.233997                       # Bytes accessed per row activation
system.mem_ctrls.bytesPerActivate::stdev   318.244903                       # Bytes accessed per row activation
system.mem_ctrls.bytesPerActivate::0-127         1239     59.25%     59.25% # Bytes accessed per row activation
system.mem_ctrls.bytesPerActivate::128-255          521     24.92%     84.17% # Bytes accessed per row activation
system.mem_ctrls.bytesPerActivate::256-383           24      1.15%     85.32% # Bytes accessed per row activation
system.mem_ctrls.bytesPerActivate::384-511           13      0.62%     85.94% # Bytes accessed per row activation
system.mem_ctrls.bytesPerActivate::512-639           12      0.57%     86.51% # Bytes accessed per row activation
system.mem_ctrls.bytesPerActivate::640-767            9      0.43%     86.94% # Bytes accessed per row activation
system.mem_ctrls.bytesPerActivate::768-895            5      0.24%     87.18% # Bytes accessed per row activation
system.mem_ctrls.bytesPerActivate::896-1023            7      0.33%     87.52% # Bytes accessed per row activation
system.mem_ctrls.bytesPerActivate::1024-1151          261     12.48%    100.00% # Bytes accessed per row activation
system.mem_ctrls.bytesPerActivate::total         2091                       # Bytes accessed per row activation
system.mem_ctrls.totQLat                    123981172                       # Total ticks spent queuing
system.mem_ctrls.totMemAccLat               256093672                       # Total ticks spent from burst creation until serviced by the DRAM
system.mem_ctrls.totBusLat                   35230000                       # Total ticks spent in databus transfers
system.mem_ctrls.avgQLat                     17595.97                       # Average queueing delay per DRAM burst
system.mem_ctrls.avgBusLat                    5000.00                       # Average bus latency per DRAM burst
system.mem_ctrls.avgMemAccLat                36345.97                       # Average memory access latency per DRAM burst
system.mem_ctrls.avgRdBW                       271.45                       # Average DRAM read bandwidth in MiByte/s
system.mem_ctrls.avgWrBW                         0.00                       # Average achieved write bandwidth in MiByte/s
system.mem_ctrls.avgRdBWSys                    271.45                       # Average system read bandwidth in MiByte/s
system.mem_ctrls.avgWrBWSys                      0.00                       # Average system write bandwidth in MiByte/s
system.mem_ctrls.peakBW                      12800.00                       # Theoretical peak bandwidth in MiByte/s
system.mem_ctrls.busUtil                         2.12                       # Data bus utilization in percentage
system.mem_ctrls.busUtilRead                     2.12                       # Data bus utilization in percentage for reads
system.mem_ctrls.busUtilWrite                    0.00                       # Data bus utilization in percentage for writes
system.mem_ctrls.avgRdQLen                       7.46                       # Average read queue length when enqueuing
system.mem_ctrls.avgWrQLen                       0.00                       # Average write queue length when enqueuing
system.mem_ctrls.readRowHits                     4946                       # Number of row buffer hits during reads
system.mem_ctrls.writeRowHits                       0                       # Number of row buffer hits during writes
system.mem_ctrls.readRowHitRate                 70.20                       # Row buffer hit rate for reads
system.mem_ctrls.writeRowHitRate                  nan                       # Row buffer hit rate for writes
system.mem_ctrls.avgGap                     235762.35                       # Average gap between requests
system.mem_ctrls.pageHitRate                    70.20                       # Row buffer hit rate, read and write combined
system.mem_ctrls_0.actEnergy                  8550360                       # Energy for activate commands per rank (pJ)
system.mem_ctrls_0.preEnergy                  4665375                       # Energy for precharge commands per rank (pJ)
system.mem_ctrls_0.readEnergy                29577600                       # Energy for read commands per rank (pJ)
system.mem_ctrls_0.writeEnergy                      0                       # Energy for write commands per rank (pJ)
system.mem_ctrls_0.refreshEnergy            108323280                       # Energy for refresh commands per rank (pJ)
system.mem_ctrls_0.actBackEnergy            743863680                       # Energy for active background per rank (pJ)
system.mem_ctrls_0.preBackEnergy            342726750                       # Energy for precharge background per rank (pJ)
system.mem_ctrls_0.totalEnergy             1237707045                       # Total energy per rank (pJ)
system.mem_ctrls_0.averagePower            746.176962                       # Core power per rank (mW)
system.mem_ctrls_0.memoryStateTime::IDLE    564467931                       # Time in different power states
system.mem_ctrls_0.memoryStateTime::REF      55380000                       # Time in different power states
system.mem_ctrls_0.memoryStateTime::PRE_PDN            0                       # Time in different power states
system.mem_ctrls_0.memoryStateTime::ACT    1038897069                       # Time in different power states
system.mem_ctrls_0.memoryStateTime::ACT_PDN            0                       # Time in different power states
system.mem_ctrls_1.actEnergy                  7227360                       # Energy for activate commands per rank (pJ)
system.mem_ctrls_1.preEnergy                  3943500                       # Energy for precharge commands per rank (pJ)
system.mem_ctrls_1.readEnergy                25030200                       # Energy for read commands per rank (pJ)
system.mem_ctrls_1.writeEnergy                      0                       # Energy for write commands per rank (pJ)
system.mem_ctrls_1.refreshEnergy            108323280                       # Energy for refresh commands per rank (pJ)
system.mem_ctrls_1.actBackEnergy            739724625                       # Energy for active background per rank (pJ)
system.mem_ctrls_1.preBackEnergy            346357500                       # Energy for precharge background per rank (pJ)
system.mem_ctrls_1.totalEnergy             1230606465                       # Total energy per rank (pJ)
system.mem_ctrls_1.averagePower            741.896232                       # Core power per rank (mW)
system.mem_ctrls_1.memoryStateTime::IDLE    571087963                       # Time in different power states
system.mem_ctrls_1.memoryStateTime::REF      55380000                       # Time in different power states
system.mem_ctrls_1.memoryStateTime::PRE_PDN            0                       # Time in different power states
system.mem_ctrls_1.memoryStateTime::ACT    1032567537                       # Time in different power states
system.mem_ctrls_1.memoryStateTime::ACT_PDN            0                       # Time in different power states
system.cpu0.branchPred.lookups                 310438                       # Number of BP lookups
system.cpu0.branchPred.condPredicted           308063                       # Number of conditional branches predicted
system.cpu0.branchPred.condIncorrect             3609                       # Number of conditional branches incorrect
system.cpu0.branchPred.BTBLookups              304948                       # Number of BTB lookups
system.cpu0.branchPred.BTBHits                 304162                       # Number of BTB hits
system.cpu0.branchPred.BTBCorrect                   0                       # Number of correct BTB predictions (this stat may not work properly.
system.cpu0.branchPred.BTBHitPct            99.742251                       # BTB Hit Percentage
system.cpu0.branchPred.usedRAS                    791                       # Number of times the RAS was used to get a target.
system.cpu0.branchPred.RASInCorrect                 7                       # Number of incorrect RAS predictions.
system.cpu_voltage_domain.voltage                   1                       # Voltage in Volts
system.cpu_clk_domain.clock                       500                       # Clock period in ticks
system.cpu0.dstage2_mmu.stage2_tlb.walker.walks            0                       # Table walker walks requested
system.cpu0.dstage2_mmu.stage2_tlb.walker.walkRequestOrigin_Requested::Data            0                       # Table walker requests started/completed, data/inst
system.cpu0.dstage2_mmu.stage2_tlb.walker.walkRequestOrigin_Requested::Inst            0                       # Table walker requests started/completed, data/inst
system.cpu0.dstage2_mmu.stage2_tlb.walker.walkRequestOrigin_Requested::total            0                       # Table walker requests started/completed, data/inst
system.cpu0.dstage2_mmu.stage2_tlb.walker.walkRequestOrigin_Completed::Data            0                       # Table walker requests started/completed, data/inst
system.cpu0.dstage2_mmu.stage2_tlb.walker.walkRequestOrigin_Completed::Inst            0                       # Table walker requests started/completed, data/inst
system.cpu0.dstage2_mmu.stage2_tlb.walker.walkRequestOrigin_Completed::total            0                       # Table walker requests started/completed, data/inst
system.cpu0.dstage2_mmu.stage2_tlb.walker.walkRequestOrigin::total            0                       # Table walker requests started/completed, data/inst
system.cpu0.dstage2_mmu.stage2_tlb.inst_hits            0                       # ITB inst hits
system.cpu0.dstage2_mmu.stage2_tlb.inst_misses            0                       # ITB inst misses
system.cpu0.dstage2_mmu.stage2_tlb.read_hits            0                       # DTB read hits
system.cpu0.dstage2_mmu.stage2_tlb.read_misses            0                       # DTB read misses
system.cpu0.dstage2_mmu.stage2_tlb.write_hits            0                       # DTB write hits
system.cpu0.dstage2_mmu.stage2_tlb.write_misses            0                       # DTB write misses
system.cpu0.dstage2_mmu.stage2_tlb.flush_tlb            0                       # Number of times complete TLB was flushed
system.cpu0.dstage2_mmu.stage2_tlb.flush_tlb_mva            0                       # Number of times TLB was flushed by MVA
system.cpu0.dstage2_mmu.stage2_tlb.flush_tlb_mva_asid            0                       # Number of times TLB was flushed by MVA & ASID
system.cpu0.dstage2_mmu.stage2_tlb.flush_tlb_asid            0                       # Number of times TLB was flushed by ASID
system.cpu0.dstage2_mmu.stage2_tlb.flush_entries            0                       # Number of entries that have been flushed from TLB
system.cpu0.dstage2_mmu.stage2_tlb.align_faults            0                       # Number of TLB faults due to alignment restrictions
system.cpu0.dstage2_mmu.stage2_tlb.prefetch_faults            0                       # Number of TLB faults due to prefetch
system.cpu0.dstage2_mmu.stage2_tlb.domain_faults            0                       # Number of TLB faults due to domain restrictions
system.cpu0.dstage2_mmu.stage2_tlb.perms_faults            0                       # Number of TLB faults due to permissions restrictions
system.cpu0.dstage2_mmu.stage2_tlb.read_accesses            0                       # DTB read accesses
system.cpu0.dstage2_mmu.stage2_tlb.write_accesses            0                       # DTB write accesses
system.cpu0.dstage2_mmu.stage2_tlb.inst_accesses            0                       # ITB inst accesses
system.cpu0.dstage2_mmu.stage2_tlb.hits             0                       # DTB hits
system.cpu0.dstage2_mmu.stage2_tlb.misses            0                       # DTB misses
system.cpu0.dstage2_mmu.stage2_tlb.accesses            0                       # DTB accesses
system.cpu0.dtb.walker.walks                        0                       # Table walker walks requested
system.cpu0.dtb.walker.walkRequestOrigin_Requested::Data            0                       # Table walker requests started/completed, data/inst
system.cpu0.dtb.walker.walkRequestOrigin_Requested::Inst            0                       # Table walker requests started/completed, data/inst
system.cpu0.dtb.walker.walkRequestOrigin_Requested::total            0                       # Table walker requests started/completed, data/inst
system.cpu0.dtb.walker.walkRequestOrigin_Completed::Data            0                       # Table walker requests started/completed, data/inst
system.cpu0.dtb.walker.walkRequestOrigin_Completed::Inst            0                       # Table walker requests started/completed, data/inst
system.cpu0.dtb.walker.walkRequestOrigin_Completed::total            0                       # Table walker requests started/completed, data/inst
system.cpu0.dtb.walker.walkRequestOrigin::total            0                       # Table walker requests started/completed, data/inst
system.cpu0.dtb.inst_hits                           0                       # ITB inst hits
system.cpu0.dtb.inst_misses                         0                       # ITB inst misses
system.cpu0.dtb.read_hits                           0                       # DTB read hits
system.cpu0.dtb.read_misses                         0                       # DTB read misses
system.cpu0.dtb.write_hits                          0                       # DTB write hits
system.cpu0.dtb.write_misses                        0                       # DTB write misses
system.cpu0.dtb.flush_tlb                           0                       # Number of times complete TLB was flushed
system.cpu0.dtb.flush_tlb_mva                       0                       # Number of times TLB was flushed by MVA
system.cpu0.dtb.flush_tlb_mva_asid                  0                       # Number of times TLB was flushed by MVA & ASID
system.cpu0.dtb.flush_tlb_asid                      0                       # Number of times TLB was flushed by ASID
system.cpu0.dtb.flush_entries                       0                       # Number of entries that have been flushed from TLB
system.cpu0.dtb.align_faults                        0                       # Number of TLB faults due to alignment restrictions
system.cpu0.dtb.prefetch_faults                     0                       # Number of TLB faults due to prefetch
system.cpu0.dtb.domain_faults                       0                       # Number of TLB faults due to domain restrictions
system.cpu0.dtb.perms_faults                        0                       # Number of TLB faults due to permissions restrictions
system.cpu0.dtb.read_accesses                       0                       # DTB read accesses
system.cpu0.dtb.write_accesses                      0                       # DTB write accesses
system.cpu0.dtb.inst_accesses                       0                       # ITB inst accesses
system.cpu0.dtb.hits                                0                       # DTB hits
system.cpu0.dtb.misses                              0                       # DTB misses
system.cpu0.dtb.accesses                            0                       # DTB accesses
system.cpu0.istage2_mmu.stage2_tlb.walker.walks            0                       # Table walker walks requested
system.cpu0.istage2_mmu.stage2_tlb.walker.walkRequestOrigin_Requested::Data            0                       # Table walker requests started/completed, data/inst
system.cpu0.istage2_mmu.stage2_tlb.walker.walkRequestOrigin_Requested::Inst            0                       # Table walker requests started/completed, data/inst
system.cpu0.istage2_mmu.stage2_tlb.walker.walkRequestOrigin_Requested::total            0                       # Table walker requests started/completed, data/inst
system.cpu0.istage2_mmu.stage2_tlb.walker.walkRequestOrigin_Completed::Data            0                       # Table walker requests started/completed, data/inst
system.cpu0.istage2_mmu.stage2_tlb.walker.walkRequestOrigin_Completed::Inst            0                       # Table walker requests started/completed, data/inst
system.cpu0.istage2_mmu.stage2_tlb.walker.walkRequestOrigin_Completed::total            0                       # Table walker requests started/completed, data/inst
system.cpu0.istage2_mmu.stage2_tlb.walker.walkRequestOrigin::total            0                       # Table walker requests started/completed, data/inst
system.cpu0.istage2_mmu.stage2_tlb.inst_hits            0                       # ITB inst hits
system.cpu0.istage2_mmu.stage2_tlb.inst_misses            0                       # ITB inst misses
system.cpu0.istage2_mmu.stage2_tlb.read_hits            0                       # DTB read hits
system.cpu0.istage2_mmu.stage2_tlb.read_misses            0                       # DTB read misses
system.cpu0.istage2_mmu.stage2_tlb.write_hits            0                       # DTB write hits
system.cpu0.istage2_mmu.stage2_tlb.write_misses            0                       # DTB write misses
system.cpu0.istage2_mmu.stage2_tlb.flush_tlb            0                       # Number of times complete TLB was flushed
system.cpu0.istage2_mmu.stage2_tlb.flush_tlb_mva            0                       # Number of times TLB was flushed by MVA
system.cpu0.istage2_mmu.stage2_tlb.flush_tlb_mva_asid            0                       # Number of times TLB was flushed by MVA & ASID
system.cpu0.istage2_mmu.stage2_tlb.flush_tlb_asid            0                       # Number of times TLB was flushed by ASID
system.cpu0.istage2_mmu.stage2_tlb.flush_entries            0                       # Number of entries that have been flushed from TLB
system.cpu0.istage2_mmu.stage2_tlb.align_faults            0                       # Number of TLB faults due to alignment restrictions
system.cpu0.istage2_mmu.stage2_tlb.prefetch_faults            0                       # Number of TLB faults due to prefetch
system.cpu0.istage2_mmu.stage2_tlb.domain_faults            0                       # Number of TLB faults due to domain restrictions
system.cpu0.istage2_mmu.stage2_tlb.perms_faults            0                       # Number of TLB faults due to permissions restrictions
system.cpu0.istage2_mmu.stage2_tlb.read_accesses            0                       # DTB read accesses
system.cpu0.istage2_mmu.stage2_tlb.write_accesses            0                       # DTB write accesses
system.cpu0.istage2_mmu.stage2_tlb.inst_accesses            0                       # ITB inst accesses
system.cpu0.istage2_mmu.stage2_tlb.hits             0                       # DTB hits
system.cpu0.istage2_mmu.stage2_tlb.misses            0                       # DTB misses
system.cpu0.istage2_mmu.stage2_tlb.accesses            0                       # DTB accesses
system.cpu0.itb.walker.walks                        0                       # Table walker walks requested
system.cpu0.itb.walker.walkRequestOrigin_Requested::Data            0                       # Table walker requests started/completed, data/inst
system.cpu0.itb.walker.walkRequestOrigin_Requested::Inst            0                       # Table walker requests started/completed, data/inst
system.cpu0.itb.walker.walkRequestOrigin_Requested::total            0                       # Table walker requests started/completed, data/inst
system.cpu0.itb.walker.walkRequestOrigin_Completed::Data            0                       # Table walker requests started/completed, data/inst
system.cpu0.itb.walker.walkRequestOrigin_Completed::Inst            0                       # Table walker requests started/completed, data/inst
system.cpu0.itb.walker.walkRequestOrigin_Completed::total            0                       # Table walker requests started/completed, data/inst
system.cpu0.itb.walker.walkRequestOrigin::total            0                       # Table walker requests started/completed, data/inst
system.cpu0.itb.inst_hits                           0                       # ITB inst hits
system.cpu0.itb.inst_misses                         0                       # ITB inst misses
system.cpu0.itb.read_hits                           0                       # DTB read hits
system.cpu0.itb.read_misses                         0                       # DTB read misses
system.cpu0.itb.write_hits                          0                       # DTB write hits
system.cpu0.itb.write_misses                        0                       # DTB write misses
system.cpu0.itb.flush_tlb                           0                       # Number of times complete TLB was flushed
system.cpu0.itb.flush_tlb_mva                       0                       # Number of times TLB was flushed by MVA
system.cpu0.itb.flush_tlb_mva_asid                  0                       # Number of times TLB was flushed by MVA & ASID
system.cpu0.itb.flush_tlb_asid                      0                       # Number of times TLB was flushed by ASID
system.cpu0.itb.flush_entries                       0                       # Number of entries that have been flushed from TLB
system.cpu0.itb.align_faults                        0                       # Number of TLB faults due to alignment restrictions
system.cpu0.itb.prefetch_faults                     0                       # Number of TLB faults due to prefetch
system.cpu0.itb.domain_faults                       0                       # Number of TLB faults due to domain restrictions
system.cpu0.itb.perms_faults                        0                       # Number of TLB faults due to permissions restrictions
system.cpu0.itb.read_accesses                       0                       # DTB read accesses
system.cpu0.itb.write_accesses                      0                       # DTB write accesses
system.cpu0.itb.inst_accesses                       0                       # ITB inst accesses
system.cpu0.itb.hits                                0                       # DTB hits
system.cpu0.itb.misses                              0                       # DTB misses
system.cpu0.itb.accesses                            0                       # DTB accesses
system.cpu0.workload.num_syscalls                 135                       # Number of system calls
system.cpu0.numCycles                         3322442                       # number of cpu cycles simulated
system.cpu0.numWorkItemsStarted                     0                       # number of work items this cpu started
system.cpu0.numWorkItemsCompleted                   0                       # number of work items this cpu completed
system.cpu0.fetch.icacheStallCycles             17175                       # Number of cycles fetch is stalled on an Icache miss
system.cpu0.fetch.Insts                       4419758                       # Number of instructions fetch has processed
system.cpu0.fetch.Branches                     310438                       # Number of branches that fetch encountered
system.cpu0.fetch.predictedBranches            304953                       # Number of branches that fetch has predicted taken
system.cpu0.fetch.Cycles                      3259771                       # Number of cycles fetch has run and was not squashing or blocked
system.cpu0.fetch.SquashCycles                   7311                       # Number of cycles fetch has spent squashing
system.cpu0.fetch.MiscStallCycles                 404                       # Number of cycles fetch has spent waiting on interrupts, or bad addresses, or out of MSHRs
system.cpu0.fetch.PendingTrapStallCycles          109                       # Number of stall cycles due to pending traps
system.cpu0.fetch.IcacheWaitRetryStallCycles          604                       # Number of stall cycles due to full MSHR
system.cpu0.fetch.CacheLines                  1194588                       # Number of cache lines fetched
system.cpu0.fetch.IcacheSquashes                  358                       # Number of outstanding Icache misses that were squashed
system.cpu0.fetch.rateDist::samples           3281718                       # Number of instructions fetched each cycle (Total)
system.cpu0.fetch.rateDist::mean             1.349807                       # Number of instructions fetched each cycle (Total)
system.cpu0.fetch.rateDist::stdev            1.271270                       # Number of instructions fetched each cycle (Total)
system.cpu0.fetch.rateDist::underflows              0      0.00%      0.00% # Number of instructions fetched each cycle (Total)
system.cpu0.fetch.rateDist::0                 1187111     36.17%     36.17% # Number of instructions fetched each cycle (Total)
system.cpu0.fetch.rateDist::1                  851056     25.93%     62.11% # Number of instructions fetched each cycle (Total)
system.cpu0.fetch.rateDist::2                  152024      4.63%     66.74% # Number of instructions fetched each cycle (Total)
system.cpu0.fetch.rateDist::3                 1091527     33.26%    100.00% # Number of instructions fetched each cycle (Total)
system.cpu0.fetch.rateDist::overflows               0      0.00%    100.00% # Number of instructions fetched each cycle (Total)
system.cpu0.fetch.rateDist::min_value               0                       # Number of instructions fetched each cycle (Total)
system.cpu0.fetch.rateDist::max_value               3                       # Number of instructions fetched each cycle (Total)
system.cpu0.fetch.rateDist::total             3281718                       # Number of instructions fetched each cycle (Total)
system.cpu0.fetch.branchRate                 0.093437                       # Number of branch fetches per cycle
system.cpu0.fetch.rate                       1.330274                       # Number of inst fetches per cycle
system.cpu0.decode.IdleCycles                  433397                       # Number of cycles decode is idle
system.cpu0.decode.BlockedCycles              1338424                       # Number of cycles decode is blocked
system.cpu0.decode.RunCycles                   882652                       # Number of cycles decode is running
system.cpu0.decode.UnblockCycles               623919                       # Number of cycles decode is unblocking
system.cpu0.decode.SquashCycles                  3326                       # Number of cycles decode is squashing
system.cpu0.decode.BranchResolved                 936                       # Number of times decode resolved a branch
system.cpu0.decode.BranchMispred                  342                       # Number of times decode detected a branch misprediction
system.cpu0.decode.DecodedInsts               4346406                       # Number of instructions handled by decode
system.cpu0.decode.SquashedInsts                12256                       # Number of squashed instructions handled by decode
system.cpu0.rename.SquashCycles                  3326                       # Number of cycles rename is squashing
system.cpu0.rename.IdleCycles                  783667                       # Number of cycles rename is idle
system.cpu0.rename.BlockCycles                 524083                       # Number of cycles rename is blocking
system.cpu0.rename.serializeStallCycles          8714                       # count of cycles rename stalled for serializing inst
system.cpu0.rename.RunCycles                  1107387                       # Number of cycles rename is running
system.cpu0.rename.UnblockCycles               854541                       # Number of cycles rename is unblocking
system.cpu0.rename.RenamedInsts               4332340                       # Number of instructions processed by rename
system.cpu0.rename.SquashedInsts                 5264                       # Number of squashed instructions processed by rename
system.cpu0.rename.ROBFullEvents               595692                       # Number of times rename has blocked due to ROB full
system.cpu0.rename.IQFullEvents                   103                       # Number of times rename has blocked due to IQ full
system.cpu0.rename.LQFullEvents                    11                       # Number of times rename has blocked due to LQ full
system.cpu0.rename.SQFullEvents                 14842                       # Number of times rename has blocked due to SQ full
system.cpu0.rename.RenamedOperands            5610339                       # Number of destination operands rename has renamed
system.cpu0.rename.RenameLookups             21321026                       # Number of register rename lookups that rename has made
system.cpu0.rename.int_rename_lookups         7174408                       # Number of integer rename lookups
system.cpu0.rename.fp_rename_lookups               22                       # Number of floating rename lookups
system.cpu0.rename.CommittedMaps              5585611                       # Number of HB maps that are committed
system.cpu0.rename.UndoneMaps                   24728                       # Number of HB maps that are undone due to squashing
system.cpu0.rename.serializingInsts               118                       # count of serializing insts renamed
system.cpu0.rename.tempSerializingInsts           118                       # count of temporary serializing insts renamed
system.cpu0.rename.skidInsts                  1427760                       # count of insts added to the skid buffer
system.cpu0.memDep0.insertedLoads             1066054                       # Number of loads inserted to the mem dependence unit.
system.cpu0.memDep0.insertedStores              76695                       # Number of stores inserted to the mem dependence unit.
system.cpu0.memDep0.conflictingLoads              251                       # Number of conflicting loads.
system.cpu0.memDep0.conflictingStores             116                       # Number of conflicting stores.
system.cpu0.iq.iqInstsAdded                   4326511                       # Number of instructions added to the IQ (excludes non-spec)
system.cpu0.iq.iqNonSpecInstsAdded                258                       # Number of non-speculative instructions added to the IQ
system.cpu0.iq.iqInstsIssued                  4322334                       # Number of instructions issued
system.cpu0.iq.iqSquashedInstsIssued              969                       # Number of squashed instructions issued
system.cpu0.iq.iqSquashedInstsExamined          17120                       # Number of squashed instructions iterated over during squash; mainly for profiling
system.cpu0.iq.iqSquashedOperandsExamined        45574                       # Number of squashed operands that are examined and possibly removed from graph
system.cpu0.iq.iqSquashedNonSpecRemoved            56                       # Number of squashed non-spec instructions that were removed
system.cpu0.iq.issued_per_cycle::samples      3281718                       # Number of insts issued each cycle
system.cpu0.iq.issued_per_cycle::mean        1.317095                       # Number of insts issued each cycle
system.cpu0.iq.issued_per_cycle::stdev       1.022053                       # Number of insts issued each cycle
system.cpu0.iq.issued_per_cycle::underflows            0      0.00%      0.00% # Number of insts issued each cycle
system.cpu0.iq.issued_per_cycle::0             732430     22.32%     22.32% # Number of insts issued each cycle
system.cpu0.iq.issued_per_cycle::1            1340985     40.86%     63.18% # Number of insts issued each cycle
system.cpu0.iq.issued_per_cycle::2             704603     21.47%     84.65% # Number of insts issued each cycle
system.cpu0.iq.issued_per_cycle::3             443147     13.50%     98.15% # Number of insts issued each cycle
system.cpu0.iq.issued_per_cycle::4              60063      1.83%     99.99% # Number of insts issued each cycle
system.cpu0.iq.issued_per_cycle::5                490      0.01%    100.00% # Number of insts issued each cycle
system.cpu0.iq.issued_per_cycle::6                  0      0.00%    100.00% # Number of insts issued each cycle
system.cpu0.iq.issued_per_cycle::7                  0      0.00%    100.00% # Number of insts issued each cycle
system.cpu0.iq.issued_per_cycle::8                  0      0.00%    100.00% # Number of insts issued each cycle
system.cpu0.iq.issued_per_cycle::overflows            0      0.00%    100.00% # Number of insts issued each cycle
system.cpu0.iq.issued_per_cycle::min_value            0                       # Number of insts issued each cycle
system.cpu0.iq.issued_per_cycle::max_value            5                       # Number of insts issued each cycle
system.cpu0.iq.issued_per_cycle::total        3281718                       # Number of insts issued each cycle
system.cpu0.iq.fu_full::No_OpClass                  0      0.00%      0.00% # attempts to use FU when none available
system.cpu0.iq.fu_full::IntAlu                  80738     14.15%     14.15% # attempts to use FU when none available
system.cpu0.iq.fu_full::IntMult                  6228      1.09%     15.24% # attempts to use FU when none available
system.cpu0.iq.fu_full::IntDiv                      0      0.00%     15.24% # attempts to use FU when none available
system.cpu0.iq.fu_full::FloatAdd                    0      0.00%     15.24% # attempts to use FU when none available
system.cpu0.iq.fu_full::FloatCmp                    0      0.00%     15.24% # attempts to use FU when none available
system.cpu0.iq.fu_full::FloatCvt                    0      0.00%     15.24% # attempts to use FU when none available
system.cpu0.iq.fu_full::FloatMult                   0      0.00%     15.24% # attempts to use FU when none available
system.cpu0.iq.fu_full::FloatDiv                    0      0.00%     15.24% # attempts to use FU when none available
system.cpu0.iq.fu_full::FloatSqrt                   0      0.00%     15.24% # attempts to use FU when none available
system.cpu0.iq.fu_full::SimdAdd                     0      0.00%     15.24% # attempts to use FU when none available
system.cpu0.iq.fu_full::SimdAddAcc                  0      0.00%     15.24% # attempts to use FU when none available
system.cpu0.iq.fu_full::SimdAlu                     0      0.00%     15.24% # attempts to use FU when none available
system.cpu0.iq.fu_full::SimdCmp                     0      0.00%     15.24% # attempts to use FU when none available
system.cpu0.iq.fu_full::SimdCvt                     0      0.00%     15.24% # attempts to use FU when none available
system.cpu0.iq.fu_full::SimdMisc                    0      0.00%     15.24% # attempts to use FU when none available
system.cpu0.iq.fu_full::SimdMult                    0      0.00%     15.24% # attempts to use FU when none available
system.cpu0.iq.fu_full::SimdMultAcc                 0      0.00%     15.24% # attempts to use FU when none available
system.cpu0.iq.fu_full::SimdShift                   0      0.00%     15.24% # attempts to use FU when none available
system.cpu0.iq.fu_full::SimdShiftAcc                0      0.00%     15.24% # attempts to use FU when none available
system.cpu0.iq.fu_full::SimdSqrt                    0      0.00%     15.24% # attempts to use FU when none available
system.cpu0.iq.fu_full::SimdFloatAdd                0      0.00%     15.24% # attempts to use FU when none available
system.cpu0.iq.fu_full::SimdFloatAlu                0      0.00%     15.24% # attempts to use FU when none available
system.cpu0.iq.fu_full::SimdFloatCmp                0      0.00%     15.24% # attempts to use FU when none available
system.cpu0.iq.fu_full::SimdFloatCvt                0      0.00%     15.24% # attempts to use FU when none available
system.cpu0.iq.fu_full::SimdFloatDiv                0      0.00%     15.24% # attempts to use FU when none available
system.cpu0.iq.fu_full::SimdFloatMisc               0      0.00%     15.24% # attempts to use FU when none available
system.cpu0.iq.fu_full::SimdFloatMult               0      0.00%     15.24% # attempts to use FU when none available
system.cpu0.iq.fu_full::SimdFloatMultAcc            0      0.00%     15.24% # attempts to use FU when none available
system.cpu0.iq.fu_full::SimdFloatSqrt               0      0.00%     15.24% # attempts to use FU when none available
system.cpu0.iq.fu_full::MemRead                480854     84.26%     99.50% # attempts to use FU when none available
system.cpu0.iq.fu_full::MemWrite                 2826      0.50%    100.00% # attempts to use FU when none available
system.cpu0.iq.fu_full::IprAccess                   0      0.00%    100.00% # attempts to use FU when none available
system.cpu0.iq.fu_full::InstPrefetch                0      0.00%    100.00% # attempts to use FU when none available
system.cpu0.iq.FU_type_0::No_OpClass                0      0.00%      0.00% # Type of FU issued
system.cpu0.iq.FU_type_0::IntAlu              2361438     54.63%     54.63% # Type of FU issued
system.cpu0.iq.FU_type_0::IntMult              819492     18.96%     73.59% # Type of FU issued
system.cpu0.iq.FU_type_0::IntDiv                    0      0.00%     73.59% # Type of FU issued
system.cpu0.iq.FU_type_0::FloatAdd                  0      0.00%     73.59% # Type of FU issued
system.cpu0.iq.FU_type_0::FloatCmp                  0      0.00%     73.59% # Type of FU issued
system.cpu0.iq.FU_type_0::FloatCvt                  0      0.00%     73.59% # Type of FU issued
system.cpu0.iq.FU_type_0::FloatMult                 0      0.00%     73.59% # Type of FU issued
system.cpu0.iq.FU_type_0::FloatDiv                  0      0.00%     73.59% # Type of FU issued
system.cpu0.iq.FU_type_0::FloatSqrt                 0      0.00%     73.59% # Type of FU issued
system.cpu0.iq.FU_type_0::SimdAdd                   0      0.00%     73.59% # Type of FU issued
system.cpu0.iq.FU_type_0::SimdAddAcc                0      0.00%     73.59% # Type of FU issued
system.cpu0.iq.FU_type_0::SimdAlu                   0      0.00%     73.59% # Type of FU issued
system.cpu0.iq.FU_type_0::SimdCmp                   0      0.00%     73.59% # Type of FU issued
system.cpu0.iq.FU_type_0::SimdCvt                   0      0.00%     73.59% # Type of FU issued
system.cpu0.iq.FU_type_0::SimdMisc                  0      0.00%     73.59% # Type of FU issued
system.cpu0.iq.FU_type_0::SimdMult                  0      0.00%     73.59% # Type of FU issued
system.cpu0.iq.FU_type_0::SimdMultAcc               0      0.00%     73.59% # Type of FU issued
system.cpu0.iq.FU_type_0::SimdShift                 0      0.00%     73.59% # Type of FU issued
system.cpu0.iq.FU_type_0::SimdShiftAcc              0      0.00%     73.59% # Type of FU issued
system.cpu0.iq.FU_type_0::SimdSqrt                  0      0.00%     73.59% # Type of FU issued
system.cpu0.iq.FU_type_0::SimdFloatAdd              0      0.00%     73.59% # Type of FU issued
system.cpu0.iq.FU_type_0::SimdFloatAlu              0      0.00%     73.59% # Type of FU issued
system.cpu0.iq.FU_type_0::SimdFloatCmp              0      0.00%     73.59% # Type of FU issued
system.cpu0.iq.FU_type_0::SimdFloatCvt              0      0.00%     73.59% # Type of FU issued
system.cpu0.iq.FU_type_0::SimdFloatDiv              0      0.00%     73.59% # Type of FU issued
system.cpu0.iq.FU_type_0::SimdFloatMisc             3      0.00%     73.59% # Type of FU issued
system.cpu0.iq.FU_type_0::SimdFloatMult             0      0.00%     73.59% # Type of FU issued
system.cpu0.iq.FU_type_0::SimdFloatMultAcc            0      0.00%     73.59% # Type of FU issued
system.cpu0.iq.FU_type_0::SimdFloatSqrt             0      0.00%     73.59% # Type of FU issued
system.cpu0.iq.FU_type_0::MemRead             1065219     24.64%     98.24% # Type of FU issued
system.cpu0.iq.FU_type_0::MemWrite              76182      1.76%    100.00% # Type of FU issued
system.cpu0.iq.FU_type_0::IprAccess                 0      0.00%    100.00% # Type of FU issued
system.cpu0.iq.FU_type_0::InstPrefetch              0      0.00%    100.00% # Type of FU issued
system.cpu0.iq.FU_type_0::total               4322334                       # Type of FU issued
system.cpu0.iq.rate                          1.300951                       # Inst issue rate
system.cpu0.iq.fu_busy_cnt                     570646                       # FU busy when requested
system.cpu0.iq.fu_busy_rate                  0.132023                       # FU busy rate (busy events/executed inst)
system.cpu0.iq.int_inst_queue_reads          12497924                       # Number of integer instruction queue reads
system.cpu0.iq.int_inst_queue_writes          4343881                       # Number of integer instruction queue writes
system.cpu0.iq.int_inst_queue_wakeup_accesses      4315550                       # Number of integer instruction queue wakeup accesses
system.cpu0.iq.fp_inst_queue_reads                 77                       # Number of floating instruction queue reads
system.cpu0.iq.fp_inst_queue_writes                28                       # Number of floating instruction queue writes
system.cpu0.iq.fp_inst_queue_wakeup_accesses           28                       # Number of floating instruction queue wakeup accesses
system.cpu0.iq.int_alu_accesses               4892931                       # Number of integer alu accesses
system.cpu0.iq.fp_alu_accesses                     49                       # Number of floating point alu accesses
system.cpu0.iew.lsq.thread0.forwLoads              66                       # Number of loads that had data forwarded from stores
system.cpu0.iew.lsq.thread0.invAddrLoads            0                       # Number of loads ignored due to an invalid address
system.cpu0.iew.lsq.thread0.squashedLoads         5865                       # Number of loads squashed
system.cpu0.iew.lsq.thread0.ignoredResponses            0                       # Number of memory responses ignored because the instruction is squashed
system.cpu0.iew.lsq.thread0.memOrderViolation           21                       # Number of memory ordering violations
system.cpu0.iew.lsq.thread0.squashedStores          966                       # Number of stores squashed
system.cpu0.iew.lsq.thread0.invAddrSwpfs            0                       # Number of software prefetches ignored due to an invalid address
system.cpu0.iew.lsq.thread0.blockedLoads            0                       # Number of blocked loads due to partial load-store forwarding
system.cpu0.iew.lsq.thread0.rescheduledLoads           10                       # Number of loads that were rescheduled
system.cpu0.iew.lsq.thread0.cacheBlocked          376                       # Number of times an access to memory failed due to the cache being blocked
system.cpu0.iew.iewIdleCycles                       0                       # Number of cycles IEW is idle
system.cpu0.iew.iewSquashCycles                  3326                       # Number of cycles IEW is squashing
system.cpu0.iew.iewBlockCycles                    937                       # Number of cycles IEW is blocking
system.cpu0.iew.iewUnblockCycles                  111                       # Number of cycles IEW is unblocking
system.cpu0.iew.iewDispatchedInsts            4326784                       # Number of instructions dispatched to IQ
system.cpu0.iew.iewDispSquashedInsts                0                       # Number of squashed instructions skipped by dispatch
system.cpu0.iew.iewDispLoadInsts              1066054                       # Number of dispatched load instructions
system.cpu0.iew.iewDispStoreInsts               76695                       # Number of dispatched store instructions
system.cpu0.iew.iewDispNonSpecInsts               114                       # Number of dispatched non-speculative instructions
system.cpu0.iew.iewIQFullEvents                     6                       # Number of times the IQ has become full, causing a stall
system.cpu0.iew.iewLSQFullEvents                   84                       # Number of times the LSQ has become full, causing a stall
system.cpu0.iew.memOrderViolationEvents            21                       # Number of memory order violations
system.cpu0.iew.predictedTakenIncorrect          2350                       # Number of branches that were predicted taken incorrectly
system.cpu0.iew.predictedNotTakenIncorrect          994                       # Number of branches that were predicted not taken incorrectly
system.cpu0.iew.branchMispredicts                3344                       # Number of branch mispredicts detected at execute
system.cpu0.iew.iewExecutedInsts              4317537                       # Number of executed instructions
system.cpu0.iew.iewExecLoadInsts              1062592                       # Number of load instructions executed
system.cpu0.iew.iewExecSquashedInsts             4797                       # Number of squashed instructions skipped in execute
system.cpu0.iew.exec_swp                            0                       # number of swp insts executed
system.cpu0.iew.exec_nop                           15                       # number of nop insts executed
system.cpu0.iew.exec_refs                     1138584                       # number of memory reference insts executed
system.cpu0.iew.exec_branches                  301335                       # Number of branches executed
system.cpu0.iew.exec_stores                     75992                       # Number of stores executed
system.cpu0.iew.exec_rate                    1.299507                       # Inst execution rate
system.cpu0.iew.wb_sent                       4315713                       # cumulative count of insts sent to commit
system.cpu0.iew.wb_count                      4315578                       # cumulative count of insts written-back
system.cpu0.iew.wb_producers                  2917017                       # num instructions producing a value
system.cpu0.iew.wb_consumers                  3901867                       # num instructions consuming a value
system.cpu0.iew.wb_penalized                        0                       # number of instrctions required to write to 'other' IQ
system.cpu0.iew.wb_rate                      1.298917                       # insts written-back per cycle
system.cpu0.iew.wb_fanout                    0.747595                       # average fanout of values written-back
system.cpu0.iew.wb_penalized_rate                   0                       # fraction of instructions written-back that wrote to 'other' IQ
system.cpu0.commit.commitSquashedInsts          13697                       # The number of squashed insts skipped by commit
system.cpu0.commit.commitNonSpecStalls            202                       # The number of times commit has been forced to stall to communicate backwards
system.cpu0.commit.branchMispredicts             3280                       # The number of times a branch was mispredicted
system.cpu0.commit.committed_per_cycle::samples      3277896                       # Number of insts commited each cycle
system.cpu0.commit.committed_per_cycle::mean     1.314761                       # Number of insts commited each cycle
system.cpu0.commit.committed_per_cycle::stdev     1.814009                       # Number of insts commited each cycle
system.cpu0.commit.committed_per_cycle::underflows            0      0.00%      0.00% # Number of insts commited each cycle
system.cpu0.commit.committed_per_cycle::0      1502177     45.83%     45.83% # Number of insts commited each cycle
system.cpu0.commit.committed_per_cycle::1       726559     22.17%     67.99% # Number of insts commited each cycle
system.cpu0.commit.committed_per_cycle::2       487060     14.86%     82.85% # Number of insts commited each cycle
system.cpu0.commit.committed_per_cycle::3       244678      7.46%     90.32% # Number of insts commited each cycle
system.cpu0.commit.committed_per_cycle::4         2495      0.08%     90.39% # Number of insts commited each cycle
system.cpu0.commit.committed_per_cycle::5       188783      5.76%     96.15% # Number of insts commited each cycle
system.cpu0.commit.committed_per_cycle::6        32274      0.98%     97.14% # Number of insts commited each cycle
system.cpu0.commit.committed_per_cycle::7        23563      0.72%     97.86% # Number of insts commited each cycle
system.cpu0.commit.committed_per_cycle::8        70307      2.14%    100.00% # Number of insts commited each cycle
system.cpu0.commit.committed_per_cycle::overflows            0      0.00%    100.00% # Number of insts commited each cycle
system.cpu0.commit.committed_per_cycle::min_value            0                       # Number of insts commited each cycle
system.cpu0.commit.committed_per_cycle::max_value            8                       # Number of insts commited each cycle
system.cpu0.commit.committed_per_cycle::total      3277896                       # Number of insts commited each cycle
[...]
system.l2.ReadExReq_avg_mshr_miss_latency::total 86367.773713                       # average ReadExReq mshr miss latency
system.l2.demand_avg_mshr_miss_latency::cpu0.inst 63602.910680                       # average overall mshr miss latency
system.l2.demand_avg_mshr_miss_latency::cpu0.data 80321.926587                       # average overall mshr miss latency
system.l2.demand_avg_mshr_miss_latency::cpu1.inst 91041.666667                       # average overall mshr miss latency
system.l2.demand_avg_mshr_miss_latency::cpu1.data 85731.800766                       # average overall mshr miss latency
system.l2.demand_avg_mshr_miss_latency::cpu2.inst 71208.333333                       # average overall mshr miss latency
system.l2.demand_avg_mshr_miss_latency::cpu2.data 87664.750958                       # average overall mshr miss latency
system.l2.demand_avg_mshr_miss_latency::cpu3.inst 141562.500000                       # average overall mshr miss latency
system.l2.demand_avg_mshr_miss_latency::cpu3.data 87273.946360                       # average overall mshr miss latency
system.l2.demand_avg_mshr_miss_latency::cpu4.inst        69600                       # average overall mshr miss latency
system.l2.demand_avg_mshr_miss_latency::cpu4.data 86191.793893                       # average overall mshr miss latency
system.l2.demand_avg_mshr_miss_latency::cpu5.data 86358.237548                       # average overall mshr miss latency
system.l2.demand_avg_mshr_miss_latency::cpu6.inst        80250                       # average overall mshr miss latency
system.l2.demand_avg_mshr_miss_latency::cpu6.data 88411.538462                       # average overall mshr miss latency
system.l2.demand_avg_mshr_miss_latency::cpu7.inst        81850                       # average overall mshr miss latency
system.l2.demand_avg_mshr_miss_latency::cpu7.data 86043.893130                       # average overall mshr miss latency
system.l2.demand_avg_mshr_miss_latency::total 81544.618056                       # average overall mshr miss latency
system.l2.overall_avg_mshr_miss_latency::cpu0.inst 63602.910680                       # average overall mshr miss latency
system.l2.overall_avg_mshr_miss_latency::cpu0.data 80321.926587                       # average overall mshr miss latency
system.l2.overall_avg_mshr_miss_latency::cpu1.inst 91041.666667                       # average overall mshr miss latency
system.l2.overall_avg_mshr_miss_latency::cpu1.data 85731.800766                       # average overall mshr miss latency
system.l2.overall_avg_mshr_miss_latency::cpu2.inst 71208.333333                       # average overall mshr miss latency
system.l2.overall_avg_mshr_miss_latency::cpu2.data 87664.750958                       # average overall mshr miss latency
system.l2.overall_avg_mshr_miss_latency::cpu3.inst 141562.500000                       # average overall mshr miss latency
system.l2.overall_avg_mshr_miss_latency::cpu3.data 87273.946360                       # average overall mshr miss latency
system.l2.overall_avg_mshr_miss_latency::cpu4.inst        69600                       # average overall mshr miss latency
system.l2.overall_avg_mshr_miss_latency::cpu4.data 86191.793893                       # average overall mshr miss latency
system.l2.overall_avg_mshr_miss_latency::cpu5.data 86358.237548                       # average overall mshr miss latency
system.l2.overall_avg_mshr_miss_latency::cpu6.inst        80250                       # average overall mshr miss latency
system.l2.overall_avg_mshr_miss_latency::cpu6.data 88411.538462                       # average overall mshr miss latency
system.l2.overall_avg_mshr_miss_latency::cpu7.inst        81850                       # average overall mshr miss latency
system.l2.overall_avg_mshr_miss_latency::cpu7.data 86043.893130                       # average overall mshr miss latency
system.l2.overall_avg_mshr_miss_latency::l2.prefetcher 56153.242993                       # average overall mshr miss latency
system.l2.overall_avg_mshr_miss_latency::total 66467.369958                       # average overall mshr miss latency
system.l2.no_allocate_misses                        0                       # Number of misses that were no-allocate
system.membus.trans_dist::ReadReq                4833                       # Transaction distribution
system.membus.trans_dist::ReadResp               4832                       # Transaction distribution
system.membus.trans_dist::UpgradeReq               12                       # Transaction distribution
system.membus.trans_dist::SCUpgradeReq             20                       # Transaction distribution
system.membus.trans_dist::UpgradeResp               6                       # Transaction distribution
system.membus.trans_dist::ReadExReq              2213                       # Transaction distribution
system.membus.trans_dist::ReadExResp             2213                       # Transaction distribution
system.membus.pkt_count_system.l2.mem_side::system.mem_ctrls.port        14129                       # Packet count per connected master and slave (bytes)
system.membus.pkt_count::total                  14129                       # Packet count per connected master and slave (bytes)
system.membus.pkt_size_system.l2.mem_side::system.mem_ctrls.port       450880                       # Cumulative packet size per connected master and slave (bytes)
system.membus.pkt_size::total                  450880                       # Cumulative packet size per connected master and slave (bytes)
system.membus.snoops                               26                       # Total snoops (count)
system.membus.snoop_fanout::samples              7078                       # Request fanout histogram
system.membus.snoop_fanout::mean                    0                       # Request fanout histogram
system.membus.snoop_fanout::stdev                   0                       # Request fanout histogram
system.membus.snoop_fanout::underflows              0      0.00%      0.00% # Request fanout histogram
system.membus.snoop_fanout::0                    7078    100.00%    100.00% # Request fanout histogram
system.membus.snoop_fanout::1                       0      0.00%    100.00% # Request fanout histogram
system.membus.snoop_fanout::overflows               0      0.00%    100.00% # Request fanout histogram
system.membus.snoop_fanout::min_value               0                       # Request fanout histogram
system.membus.snoop_fanout::max_value               0                       # Request fanout histogram
system.membus.snoop_fanout::total                7078                       # Request fanout histogram
system.membus.reqLayer0.occupancy             9484767                       # Layer occupancy (ticks)
system.membus.reqLayer0.utilization               0.6                       # Layer utilization (%)
system.membus.respLayer1.occupancy           36745088                       # Layer occupancy (ticks)
system.membus.respLayer1.utilization              2.2                       # Layer utilization (%)
system.tol2bus.trans_dist::ReadReq            2119521                       # Transaction distribution
system.tol2bus.trans_dist::ReadResp           2119519                       # Transaction distribution
system.tol2bus.trans_dist::Writeback           302425                       # Transaction distribution
system.tol2bus.trans_dist::HardPFReq             4723                       # Transaction distribution
system.tol2bus.trans_dist::UpgradeReq              12                       # Transaction distribution
system.tol2bus.trans_dist::SCUpgradeReq            22                       # Transaction distribution
system.tol2bus.trans_dist::UpgradeResp             34                       # Transaction distribution
system.tol2bus.trans_dist::SCUpgradeFailReq           12                       # Transaction distribution
system.tol2bus.trans_dist::UpgradeFailResp           12                       # Transaction distribution
system.tol2bus.trans_dist::ReadExReq            20702                       # Transaction distribution
system.tol2bus.trans_dist::ReadExResp           20702                       # Transaction distribution
system.tol2bus.pkt_count_system.cpu0.icache.mem_side::system.l2.cpu_side         1282                       # Packet count per connected master and slave (bytes)
system.tol2bus.pkt_count_system.cpu0.dcache.mem_side::system.l2.cpu_side       361853                       # Packet count per connected master and slave (bytes)
system.tol2bus.pkt_count_system.cpu1.icache.mem_side::system.l2.cpu_side          104                       # Packet count per connected master and slave (bytes)
system.tol2bus.pkt_count_system.cpu1.dcache.mem_side::system.l2.cpu_side       344617                       # Packet count per connected master and slave (bytes)
system.tol2bus.pkt_count_system.cpu2.icache.mem_side::system.l2.cpu_side          104                       # Packet count per connected master and slave (bytes)
system.tol2bus.pkt_count_system.cpu2.dcache.mem_side::system.l2.cpu_side       331259                       # Packet count per connected master and slave (bytes)
system.tol2bus.pkt_count_system.cpu3.icache.mem_side::system.l2.cpu_side          102                       # Packet count per connected master and slave (bytes)
system.tol2bus.pkt_count_system.cpu3.dcache.mem_side::system.l2.cpu_side       334237                       # Packet count per connected master and slave (bytes)
system.tol2bus.pkt_count_system.cpu4.icache.mem_side::system.l2.cpu_side          104                       # Packet count per connected master and slave (bytes)
system.tol2bus.pkt_count_system.cpu4.dcache.mem_side::system.l2.cpu_side       342535                       # Packet count per connected master and slave (bytes)
system.tol2bus.pkt_count_system.cpu5.icache.mem_side::system.l2.cpu_side          110                       # Packet count per connected master and slave (bytes)
system.tol2bus.pkt_count_system.cpu5.dcache.mem_side::system.l2.cpu_side       350703                       # Packet count per connected master and slave (bytes)
system.tol2bus.pkt_count_system.cpu6.icache.mem_side::system.l2.cpu_side          108                       # Packet count per connected master and slave (bytes)
system.tol2bus.pkt_count_system.cpu6.dcache.mem_side::system.l2.cpu_side       326262                       # Packet count per connected master and slave (bytes)
system.tol2bus.pkt_count_system.cpu7.icache.mem_side::system.l2.cpu_side          108                       # Packet count per connected master and slave (bytes)
system.tol2bus.pkt_count_system.cpu7.dcache.mem_side::system.l2.cpu_side       354225                       # Packet count per connected master and slave (bytes)
system.tol2bus.pkt_count::total               2747713                       # Packet count per connected master and slave (bytes)
system.tol2bus.pkt_size_system.cpu0.icache.mem_side::system.l2.cpu_side        40960                       # Cumulative packet size per connected master and slave (bytes)
system.tol2bus.pkt_size_system.cpu0.dcache.mem_side::system.l2.cpu_side      5786752                       # Cumulative packet size per connected master and slave (bytes)
system.tol2bus.pkt_size_system.cpu1.icache.mem_side::system.l2.cpu_side         3328                       # Cumulative packet size per connected master and slave (bytes)
system.tol2bus.pkt_size_system.cpu1.dcache.mem_side::system.l2.cpu_side      4978368                       # Cumulative packet size per connected master and slave (bytes)
system.tol2bus.pkt_size_system.cpu2.icache.mem_side::system.l2.cpu_side         3328                       # Cumulative packet size per connected master and slave (bytes)
system.tol2bus.pkt_size_system.cpu2.dcache.mem_side::system.l2.cpu_side      4122624                       # Cumulative packet size per connected master and slave (bytes)
system.tol2bus.pkt_size_system.cpu3.icache.mem_side::system.l2.cpu_side         3264                       # Cumulative packet size per connected master and slave (bytes)
system.tol2bus.pkt_size_system.cpu3.dcache.mem_side::system.l2.cpu_side      4313920                       # Cumulative packet size per connected master and slave (bytes)
system.tol2bus.pkt_size_system.cpu4.icache.mem_side::system.l2.cpu_side         3328                       # Cumulative packet size per connected master and slave (bytes)
system.tol2bus.pkt_size_system.cpu4.dcache.mem_side::system.l2.cpu_side      4844864                       # Cumulative packet size per connected master and slave (bytes)
system.tol2bus.pkt_size_system.cpu5.icache.mem_side::system.l2.cpu_side         3520                       # Cumulative packet size per connected master and slave (bytes)
system.tol2bus.pkt_size_system.cpu5.dcache.mem_side::system.l2.cpu_side      5367424                       # Cumulative packet size per connected master and slave (bytes)
system.tol2bus.pkt_size_system.cpu6.icache.mem_side::system.l2.cpu_side         3456                       # Cumulative packet size per connected master and slave (bytes)
system.tol2bus.pkt_size_system.cpu6.dcache.mem_side::system.l2.cpu_side      3803776                       # Cumulative packet size per connected master and slave (bytes)
system.tol2bus.pkt_size_system.cpu7.icache.mem_side::system.l2.cpu_side         3456                       # Cumulative packet size per connected master and slave (bytes)
system.tol2bus.pkt_size_system.cpu7.dcache.mem_side::system.l2.cpu_side      5593536                       # Cumulative packet size per connected master and slave (bytes)
system.tol2bus.pkt_size::total               38875904                       # Cumulative packet size per connected master and slave (bytes)
system.tol2bus.snoops                         1839971                       # Total snoops (count)
system.tol2bus.snoop_fanout::samples          2447424                       # Request fanout histogram
system.tol2bus.snoop_fanout::mean           15.001930                       # Request fanout histogram
system.tol2bus.snoop_fanout::stdev           0.043887                       # Request fanout histogram
system.tol2bus.snoop_fanout::underflows             0      0.00%      0.00% # Request fanout histogram
system.tol2bus.snoop_fanout::0                      0      0.00%      0.00% # Request fanout histogram
system.tol2bus.snoop_fanout::1                      0      0.00%      0.00% # Request fanout histogram
system.tol2bus.snoop_fanout::2                      0      0.00%      0.00% # Request fanout histogram
system.tol2bus.snoop_fanout::3                      0      0.00%      0.00% # Request fanout histogram
system.tol2bus.snoop_fanout::4                      0      0.00%      0.00% # Request fanout histogram
system.tol2bus.snoop_fanout::5                      0      0.00%      0.00% # Request fanout histogram
system.tol2bus.snoop_fanout::6                      0      0.00%      0.00% # Request fanout histogram
system.tol2bus.snoop_fanout::7                      0      0.00%      0.00% # Request fanout histogram
system.tol2bus.snoop_fanout::8                      0      0.00%      0.00% # Request fanout histogram
system.tol2bus.snoop_fanout::9                      0      0.00%      0.00% # Request fanout histogram
system.tol2bus.snoop_fanout::10                     0      0.00%      0.00% # Request fanout histogram
system.tol2bus.snoop_fanout::11                     0      0.00%      0.00% # Request fanout histogram
system.tol2bus.snoop_fanout::12                     0      0.00%      0.00% # Request fanout histogram
system.tol2bus.snoop_fanout::13                     0      0.00%      0.00% # Request fanout histogram
system.tol2bus.snoop_fanout::14                     0      0.00%      0.00% # Request fanout histogram
system.tol2bus.snoop_fanout::15               2442701     99.81%     99.81% # Request fanout histogram
system.tol2bus.snoop_fanout::16                  4723      0.19%    100.00% # Request fanout histogram
system.tol2bus.snoop_fanout::overflows              0      0.00%    100.00% # Request fanout histogram
system.tol2bus.snoop_fanout::min_value             15                       # Request fanout histogram
system.tol2bus.snoop_fanout::max_value             16                       # Request fanout histogram
system.tol2bus.snoop_fanout::total            2447424                       # Request fanout histogram
system.tol2bus.reqLayer0.occupancy         1523778743                       # Layer occupancy (ticks)
system.tol2bus.reqLayer0.utilization             91.7                       # Layer utilization (%)
system.tol2bus.respLayer0.occupancy           1065966                       # Layer occupancy (ticks)
system.tol2bus.respLayer0.utilization             0.1                       # Layer utilization (%)
system.tol2bus.respLayer1.occupancy         500951969                       # Layer occupancy (ticks)
system.tol2bus.respLayer1.utilization            30.2                       # Layer utilization (%)
system.tol2bus.respLayer4.occupancy             87195                       # Layer occupancy (ticks)
system.tol2bus.respLayer4.utilization             0.0                       # Layer utilization (%)
system.tol2bus.respLayer5.occupancy         493164047                       # Layer occupancy (ticks)
system.tol2bus.respLayer5.utilization            29.7                       # Layer utilization (%)
system.tol2bus.respLayer8.occupancy             88438                       # Layer occupancy (ticks)
system.tol2bus.respLayer8.utilization             0.0                       # Layer utilization (%)
system.tol2bus.respLayer9.occupancy         499313302                       # Layer occupancy (ticks)
system.tol2bus.respLayer9.utilization            30.1                       # Layer utilization (%)
system.tol2bus.respLayer12.occupancy            83699                       # Layer occupancy (ticks)
system.tol2bus.respLayer12.utilization            0.0                       # Layer utilization (%)
system.tol2bus.respLayer13.occupancy        497861658                       # Layer occupancy (ticks)
system.tol2bus.respLayer13.utilization           30.0                       # Layer utilization (%)
system.tol2bus.respLayer16.occupancy            83468                       # Layer occupancy (ticks)
system.tol2bus.respLayer16.utilization            0.0                       # Layer utilization (%)
system.tol2bus.respLayer17.occupancy        493642958                       # Layer occupancy (ticks)
system.tol2bus.respLayer17.utilization           29.7                       # Layer utilization (%)
system.tol2bus.respLayer20.occupancy            88453                       # Layer occupancy (ticks)
system.tol2bus.respLayer20.utilization            0.0                       # Layer utilization (%)
system.tol2bus.respLayer21.occupancy        489038968                       # Layer occupancy (ticks)
system.tol2bus.respLayer21.utilization           29.4                       # Layer utilization (%)
system.tol2bus.respLayer24.occupancy            86455                       # Layer occupancy (ticks)
system.tol2bus.respLayer24.utilization            0.0                       # Layer utilization (%)
system.tol2bus.respLayer25.occupancy        501020200                       # Layer occupancy (ticks)
system.tol2bus.respLayer25.utilization           30.2                       # Layer utilization (%)
system.tol2bus.respLayer28.occupancy            83219                       # Layer occupancy (ticks)
system.tol2bus.respLayer28.utilization            0.0                       # Layer utilization (%)
system.tol2bus.respLayer29.occupancy        488297167                       # Layer occupancy (ticks)
system.tol2bus.respLayer29.utilization           29.4                       # Layer utilization (%)

---------- End Simulation Statistics   ----------
