
---------- Begin Simulation Statistics ----------
sim_seconds                                  0.002091                       # Number of seconds simulated
sim_ticks                                  2090941000                       # Number of ticks simulated
final_tick                                 2090941000                       # Number of ticks from beginning of simulation (restored from checkpoints and never reset)
sim_freq                                 1000000000000                       # Frequency of simulated ticks
host_inst_rate                                 163175                       # Simulator instruction rate (inst/s)
host_op_rate                                   163290                       # Simulator op (including micro ops) rate (op/s)
host_tick_rate                               10641694                       # Simulator tick rate (ticks/s)
host_mem_usage                                 665892                       # Number of bytes of host memory used
host_seconds                                   196.49                       # Real time elapsed on the host
sim_insts                                    32061636                       # Number of instructions simulated
sim_ops                                      32084153                       # Number of ops (including micro ops) simulated
system.voltage_domain.voltage                       1                       # Voltage in Volts
system.clk_domain.clock                          1000                       # Clock period in ticks
system.mem_ctrls.bytes_read::cpu0.inst          32896                       # Number of bytes read from this memory
system.mem_ctrls.bytes_read::cpu0.data         311296                       # Number of bytes read from this memory
system.mem_ctrls.bytes_read::cpu1.inst            960                       # Number of bytes read from this memory
system.mem_ctrls.bytes_read::cpu1.data          33600                       # Number of bytes read from this memory
system.mem_ctrls.bytes_read::cpu2.inst            384                       # Number of bytes read from this memory
system.mem_ctrls.bytes_read::cpu2.data          33600                       # Number of bytes read from this memory
system.mem_ctrls.bytes_read::cpu3.inst            256                       # Number of bytes read from this memory
system.mem_ctrls.bytes_read::cpu3.data          33664                       # Number of bytes read from this memory
system.mem_ctrls.bytes_read::total             446656                       # Number of bytes read from this memory
system.mem_ctrls.bytes_inst_read::cpu0.inst        32896                       # Number of instructions bytes read from this memory
system.mem_ctrls.bytes_inst_read::cpu1.inst          960                       # Number of instructions bytes read from this memory
system.mem_ctrls.bytes_inst_read::cpu2.inst          384                       # Number of instructions bytes read from this memory
system.mem_ctrls.bytes_inst_read::cpu3.inst          256                       # Number of instructions bytes read from this memory
system.mem_ctrls.bytes_inst_read::total         34496                       # Number of instructions bytes read from this memory
system.mem_ctrls.num_reads::cpu0.inst             514                       # Number of read requests responded to by this memory
system.mem_ctrls.num_reads::cpu0.data            4864                       # Number of read requests responded to by this memory
system.mem_ctrls.num_reads::cpu1.inst              15                       # Number of read requests responded to by this memory
system.mem_ctrls.num_reads::cpu1.data             525                       # Number of read requests responded to by this memory
system.mem_ctrls.num_reads::cpu2.inst               6                       # Number of read requests responded to by this memory
system.mem_ctrls.num_reads::cpu2.data             525                       # Number of read requests responded to by this memory
system.mem_ctrls.num_reads::cpu3.inst               4                       # Number of read requests responded to by this memory
system.mem_ctrls.num_reads::cpu3.data             526                       # Number of read requests responded to by this memory
system.mem_ctrls.num_reads::total                6979                       # Number of read requests responded to by this memory
system.mem_ctrls.bw_read::cpu0.inst          15732629                       # Total read bandwidth from this memory (bytes/s)
system.mem_ctrls.bw_read::cpu0.data         148878424                       # Total read bandwidth from this memory (bytes/s)
system.mem_ctrls.bw_read::cpu1.inst            459123                       # Total read bandwidth from this memory (bytes/s)
system.mem_ctrls.bw_read::cpu1.data          16069320                       # Total read bandwidth from this memory (bytes/s)
system.mem_ctrls.bw_read::cpu2.inst            183649                       # Total read bandwidth from this memory (bytes/s)
system.mem_ctrls.bw_read::cpu2.data          16069320                       # Total read bandwidth from this memory (bytes/s)
system.mem_ctrls.bw_read::cpu3.inst            122433                       # Total read bandwidth from this memory (bytes/s)
system.mem_ctrls.bw_read::cpu3.data          16099928                       # Total read bandwidth from this memory (bytes/s)
system.mem_ctrls.bw_read::total             213614827                       # Total read bandwidth from this memory (bytes/s)
system.mem_ctrls.bw_inst_read::cpu0.inst     15732629                       # Instruction read bandwidth from this memory (bytes/s)
system.mem_ctrls.bw_inst_read::cpu1.inst       459123                       # Instruction read bandwidth from this memory (bytes/s)
system.mem_ctrls.bw_inst_read::cpu2.inst       183649                       # Instruction read bandwidth from this memory (bytes/s)
system.mem_ctrls.bw_inst_read::cpu3.inst       122433                       # Instruction read bandwidth from this memory (bytes/s)
system.mem_ctrls.bw_inst_read::total         16497835                       # Instruction read bandwidth from this memory (bytes/s)
system.mem_ctrls.bw_total::cpu0.inst         15732629                       # Total bandwidth to/from this memory (bytes/s)
system.mem_ctrls.bw_total::cpu0.data        148878424                       # Total bandwidth to/from this memory (bytes/s)
system.mem_ctrls.bw_total::cpu1.inst           459123                       # Total bandwidth to/from this memory (bytes/s)
system.mem_ctrls.bw_total::cpu1.data         16069320                       # Total bandwidth to/from this memory (bytes/s)
system.mem_ctrls.bw_total::cpu2.inst           183649                       # Total bandwidth to/from this memory (bytes/s)
system.mem_ctrls.bw_total::cpu2.data         16069320                       # Total bandwidth to/from this memory (bytes/s)
system.mem_ctrls.bw_total::cpu3.inst           122433                       # Total bandwidth to/from this memory (bytes/s)
system.mem_ctrls.bw_total::cpu3.data         16099928                       # Total bandwidth to/from this memory (bytes/s)
system.mem_ctrls.bw_total::total            213614827                       # Total bandwidth to/from this memory (bytes/s)
system.mem_ctrls.readReqs                        6979                       # Number of read requests accepted
system.mem_ctrls.writeReqs                          0                       # Number of write requests accepted
system.mem_ctrls.readBursts                      6979                       # Number of DRAM read bursts, including those serviced by the write queue
system.mem_ctrls.writeBursts                        0                       # Number of DRAM write bursts, including those merged in the write queue
system.mem_ctrls.bytesReadDRAM                 446656                       # Total number of bytes read from DRAM
system.mem_ctrls.bytesReadWrQ                       0                       # Total number of bytes read from write queue
system.mem_ctrls.bytesWritten                       0                       # Total number of bytes written to DRAM
system.mem_ctrls.bytesReadSys                  446656                       # Total read bytes from the system interface side
system.mem_ctrls.bytesWrittenSys                    0                       # Total written bytes from the system interface side
system.mem_ctrls.servicedByWrQ                      0                       # Number of DRAM read bursts serviced by the write queue
system.mem_ctrls.mergedWrBursts                     0                       # Number of DRAM write bursts merged with an existing one
system.mem_ctrls.neitherReadNorWriteReqs            4                       # Number of requests that are neither read nor write
system.mem_ctrls.perBankRdBursts::0               506                       # Per bank write bursts
system.mem_ctrls.perBankRdBursts::1               509                       # Per bank write bursts
system.mem_ctrls.perBankRdBursts::2               518                       # Per bank write bursts
system.mem_ctrls.perBankRdBursts::3               474                       # Per bank write bursts
system.mem_ctrls.perBankRdBursts::4               432                       # Per bank write bursts
system.mem_ctrls.perBankRdBursts::5               421                       # Per bank write bursts
system.mem_ctrls.perBankRdBursts::6               465                       # Per bank write bursts
system.mem_ctrls.perBankRdBursts::7               415                       # Per bank write bursts
system.mem_ctrls.perBankRdBursts::8               399                       # Per bank write bursts
system.mem_ctrls.perBankRdBursts::9               394                       # Per bank write bursts
system.mem_ctrls.perBankRdBursts::10              384                       # Per bank write bursts
system.mem_ctrls.perBankRdBursts::11              396                       # Per bank write bursts
system.mem_ctrls.perBankRdBursts::12              390                       # Per bank write bursts
system.mem_ctrls.perBankRdBursts::13              417                       # Per bank write bursts
system.mem_ctrls.perBankRdBursts::14              422                       # Per bank write bursts
system.mem_ctrls.perBankRdBursts::15              437                       # Per bank write bursts
system.mem_ctrls.perBankWrBursts::0                 0                       # Per bank write bursts
system.mem_ctrls.perBankWrBursts::1                 0                       # Per bank write bursts
system.mem_ctrls.perBankWrBursts::2                 0                       # Per bank write bursts
system.mem_ctrls.perBankWrBursts::3                 0                       # Per bank write bursts
system.mem_ctrls.perBankWrBursts::4                 0                       # Per bank write bursts
system.mem_ctrls.perBankWrBursts::5                 0                       # Per bank write bursts
system.mem_ctrls.perBankWrBursts::6                 0                       # Per bank write bursts
system.mem_ctrls.perBankWrBursts::7                 0                       # Per bank write bursts
system.mem_ctrls.perBankWrBursts::8                 0                       # Per bank write bursts
system.mem_ctrls.perBankWrBursts::9                 0                       # Per bank write bursts
system.mem_ctrls.perBankWrBursts::10                0                       # Per bank write bursts
system.mem_ctrls.perBankWrBursts::11                0                       # Per bank write bursts
system.mem_ctrls.perBankWrBursts::12                0                       # Per bank write bursts
system.mem_ctrls.perBankWrBursts::13                0                       # Per bank write bursts
system.mem_ctrls.perBankWrBursts::14                0                       # Per bank write bursts
system.mem_ctrls.perBankWrBursts::15                0                       # Per bank write bursts
system.mem_ctrls.numRdRetry                         0                       # Number of times read queue was full causing retry
system.mem_ctrls.numWrRetry                         0                       # Number of times write queue was full causing retry
system.mem_ctrls.totGap                    2090901000                       # Total gap between requests
system.mem_ctrls.readPktSize::0                     0                       # Read request sizes (log2)
system.mem_ctrls.readPktSize::1                     0                       # Read request sizes (log2)
system.mem_ctrls.readPktSize::2                     0                       # Read request sizes (log2)
system.mem_ctrls.readPktSize::3                     0                       # Read request sizes (log2)
system.mem_ctrls.readPktSize::4                     0                       # Read request sizes (log2)
system.mem_ctrls.readPktSize::5                     0                       # Read request sizes (log2)
system.mem_ctrls.readPktSize::6                  6979                       # Read request sizes (log2)
system.mem_ctrls.writePktSize::0                    0                       # Write request sizes (log2)
system.mem_ctrls.writePktSize::1                    0                       # Write request sizes (log2)
system.mem_ctrls.writePktSize::2                    0                       # Write request sizes (log2)
system.mem_ctrls.writePktSize::3                    0                       # Write request sizes (log2)
system.mem_ctrls.writePktSize::4                    0                       # Write request sizes (log2)
system.mem_ctrls.writePktSize::5                    0                       # Write request sizes (log2)
system.mem_ctrls.writePktSize::6                    0                       # Write request sizes (log2)
system.mem_ctrls.rdQLenPdf::0                    3555                       # What read queue length does an incoming req see
system.mem_ctrls.rdQLenPdf::1                    2762                       # What read queue length does an incoming req see
system.mem_ctrls.rdQLenPdf::2                     477                       # What read queue length does an incoming req see
system.mem_ctrls.rdQLenPdf::3                     169                       # What read queue length does an incoming req see
system.mem_ctrls.rdQLenPdf::4                      12                       # What read queue length does an incoming req see
system.mem_ctrls.rdQLenPdf::5                       4                       # What read queue length does an incoming req see
system.mem_ctrls.rdQLenPdf::6                       0                       # What read queue length does an incoming req see
system.mem_ctrls.rdQLenPdf::7                       0                       # What read queue length does an incoming req see
system.mem_ctrls.rdQLenPdf::8                       0                       # What read queue length does an incoming req see
system.mem_ctrls.rdQLenPdf::9                       0                       # What read queue length does an incoming req see
system.mem_ctrls.rdQLenPdf::10                      0                       # What read queue length does an incoming req see
system.mem_ctrls.rdQLenPdf::11                      0                       # What read queue length does an incoming req see
system.mem_ctrls.rdQLenPdf::12                      0                       # What read queue length does an incoming req see
system.mem_ctrls.rdQLenPdf::13                      0                       # What read queue length does an incoming req see
system.mem_ctrls.rdQLenPdf::14                      0                       # What read queue length does an incoming req see
system.mem_ctrls.rdQLenPdf::15                      0                       # What read queue length does an incoming req see
system.mem_ctrls.rdQLenPdf::16                      0                       # What read queue length does an incoming req see
system.mem_ctrls.rdQLenPdf::17                      0                       # What read queue length does an incoming req see
system.mem_ctrls.rdQLenPdf::18                      0                       # What read queue length does an incoming req see
system.mem_ctrls.rdQLenPdf::19                      0                       # What read queue length does an incoming req see
system.mem_ctrls.rdQLenPdf::20                      0                       # What read queue length does an incoming req see
system.mem_ctrls.rdQLenPdf::21                      0                       # What read queue length does an incoming req see
system.mem_ctrls.rdQLenPdf::22                      0                       # What read queue length does an incoming req see
system.mem_ctrls.rdQLenPdf::23                      0                       # What read queue length does an incoming req see
system.mem_ctrls.rdQLenPdf::24                      0                       # What read queue length does an incoming req see
system.mem_ctrls.rdQLenPdf::25                      0                       # What read queue length does an incoming req see
system.mem_ctrls.rdQLenPdf::26                      0                       # What read queue length does an incoming req see
system.mem_ctrls.rdQLenPdf::27                      0                       # What read queue length does an incoming req see
system.mem_ctrls.rdQLenPdf::28                      0                       # What read queue length does an incoming req see
system.mem_ctrls.rdQLenPdf::29                      0                       # What read queue length does an incoming req see
system.mem_ctrls.rdQLenPdf::30                      0                       # What read queue length does an incoming req see
system.mem_ctrls.rdQLenPdf::31                      0                       # What read queue length does an incoming req see
system.mem_ctrls.wrQLenPdf::0                       0                       # What write queue length does an incoming req see
system.mem_ctrls.wrQLenPdf::1                       0                       # What write queue length does an incoming req see
system.mem_ctrls.wrQLenPdf::2                       0                       # What write queue length does an incoming req see
system.mem_ctrls.wrQLenPdf::3                       0                       # What write queue length does an incoming req see
system.mem_ctrls.wrQLenPdf::4                       0                       # What write queue length does an incoming req see
system.mem_ctrls.wrQLenPdf::5                       0                       # What write queue length does an incoming req see
system.mem_ctrls.wrQLenPdf::6                       0                       # What write queue length does an incoming req see
system.mem_ctrls.wrQLenPdf::7                       0                       # What write queue length does an incoming req see
system.mem_ctrls.wrQLenPdf::8                       0                       # What write queue length does an incoming req see
system.mem_ctrls.wrQLenPdf::9                       0                       # What write queue length does an incoming req see
system.mem_ctrls.wrQLenPdf::10                      0                       # What write queue length does an incoming req see
system.mem_ctrls.wrQLenPdf::11                      0                       # What write queue length does an incoming req see
system.mem_ctrls.wrQLenPdf::12                      0                       # What write queue length does an incoming req see
system.mem_ctrls.wrQLenPdf::13                      0                       # What write queue length does an incoming req see
system.mem_ctrls.wrQLenPdf::14                      0                       # What write queue length does an incoming req see
system.mem_ctrls.wrQLenPdf::15                      0                       # What write queue length does an incoming req see
system.mem_ctrls.wrQLenPdf::16                      0                       # What write queue length does an incoming req see
system.mem_ctrls.wrQLenPdf::17                      0                       # What write queue length does an incoming req see
system.mem_ctrls.wrQLenPdf::18                      0                       # What write queue length does an incoming req see
system.mem_ctrls.wrQLenPdf::19                      0                       # What write queue length does an incoming req see
system.mem_ctrls.wrQLenPdf::20                      0                       # What write queue length does an incoming req see
system.mem_ctrls.wrQLenPdf::21                      0                       # What write queue length does an incoming req see
system.mem_ctrls.wrQLenPdf::22                      0                       # What write queue length does an incoming req see
system.mem_ctrls.wrQLenPdf::23                      0                       # What write queue length does an incoming req see
system.mem_ctrls.wrQLenPdf::24                      0                       # What write queue length does an incoming req see
system.mem_ctrls.wrQLenPdf::25                      0                       # What write queue length does an incoming req see
system.mem_ctrls.wrQLenPdf::26                      0                       # What write queue length does an incoming req see
system.mem_ctrls.wrQLenPdf::27                      0                       # What write queue length does an incoming req see
system.mem_ctrls.wrQLenPdf::28                      0                       # What write queue length does an incoming req see
system.mem_ctrls.wrQLenPdf::29                      0                       # What write queue length does an incoming req see
system.mem_ctrls.wrQLenPdf::30                      0                       # What write queue length does an incoming req see
system.mem_ctrls.wrQLenPdf::31                      0                       # What write queue length does an incoming req see
system.mem_ctrls.wrQLenPdf::32                      0                       # What write queue length does an incoming req see
system.mem_ctrls.wrQLenPdf::33                      0                       # What write queue length does an incoming req see
system.mem_ctrls.wrQLenPdf::34                      0                       # What write queue length does an incoming req see
system.mem_ctrls.wrQLenPdf::35                      0                       # What write queue length does an incoming req see
system.mem_ctrls.wrQLenPdf::36                      0                       # What write queue length does an incoming req see
system.mem_ctrls.wrQLenPdf::37                      0                       # What write queue length does an incoming req see
system.mem_ctrls.wrQLenPdf::38                      0                       # What write queue length does an incoming req see
system.mem_ctrls.wrQLenPdf::39                      0                       # What write queue length does an incoming req see
system.mem_ctrls.wrQLenPdf::40                      0                       # What write queue length does an incoming req see
system.mem_ctrls.wrQLenPdf::41                      0                       # What write queue length does an incoming req see
system.mem_ctrls.wrQLenPdf::42                      0                       # What write queue length does an incoming req see
system.mem_ctrls.wrQLenPdf::43                      0                       # What write queue length does an incoming req see
system.mem_ctrls.wrQLenPdf::44                      0                       # What write queue length does an incoming req see
system.mem_ctrls.wrQLenPdf::45                      0                       # What write queue length does an incoming req see
system.mem_ctrls.wrQLenPdf::46                      0                       # What write queue length does an incoming req see
system.mem_ctrls.wrQLenPdf::47                      0                       # What write queue length does an incoming req see
system.mem_ctrls.wrQLenPdf::48                      0                       # What write queue length does an incoming req see
system.mem_ctrls.wrQLenPdf::49                      0                       # What write queue length does an incoming req see
system.mem_ctrls.wrQLenPdf::50                      0                       # What write queue length does an incoming req see
system.mem_ctrls.wrQLenPdf::51                      0                       # What write queue length does an incoming req see
system.mem_ctrls.wrQLenPdf::52                      0                       # What write queue length does an incoming req see
system.mem_ctrls.wrQLenPdf::53                      0                       # What write queue length does an incoming req see
system.mem_ctrls.wrQLenPdf::54                      0                       # What write queue length does an incoming req see
system.mem_ctrls.wrQLenPdf::55                      0                       # What write queue length does an incoming req see
system.mem_ctrls.wrQLenPdf::56                      0                       # What write queue length does an incoming req see
system.mem_ctrls.wrQLenPdf::57                      0                       # What write queue length does an incoming req see
system.mem_ctrls.wrQLenPdf::58                      0                       # What write queue length does an incoming req see
system.mem_ctrls.wrQLenPdf::59                      0                       # What write queue length does an incoming req see
system.mem_ctrls.wrQLenPdf::60                      0                       # What write queue length does an incoming req see
system.mem_ctrls.wrQLenPdf::61                      0                       # What write queue length does an incoming req see
system.mem_ctrls.wrQLenPdf::62                      0                       # What write queue length does an incoming req see
system.mem_ctrls.wrQLenPdf::63                      0                       # What write queue length does an incoming req see
system.mem_ctrls.bytesPerActivate::samples         1452                       # Bytes accessed per row activation
system.mem_ctrls.bytesPerActivate::mean    306.380165                       # Bytes accessed per row activation
system.mem_ctrls.bytesPerActivate::gmean   195.267356                       # Bytes accessed per row activation
system.mem_ctrls.bytesPerActivate::stdev   344.921719                       # Bytes accessed per row activation
system.mem_ctrls.bytesPerActivate::0-127           99      6.82%      6.82% # Bytes accessed per row activation
system.mem_ctrls.bytesPerActivate::128-255         1018     70.11%     76.93% # Bytes accessed per row activation
system.mem_ctrls.bytesPerActivate::256-383           25      1.72%     78.65% # Bytes accessed per row activation
system.mem_ctrls.bytesPerActivate::384-511           14      0.96%     79.61% # Bytes accessed per row activation
system.mem_ctrls.bytesPerActivate::512-639           15      1.03%     80.65% # Bytes accessed per row activation
system.mem_ctrls.bytesPerActivate::640-767           14      0.96%     81.61% # Bytes accessed per row activation
system.mem_ctrls.bytesPerActivate::768-895            8      0.55%     82.16% # Bytes accessed per row activation
system.mem_ctrls.bytesPerActivate::896-1023            7      0.48%     82.64% # Bytes accessed per row activation
system.mem_ctrls.bytesPerActivate::1024-1151          252     17.36%    100.00% # Bytes accessed per row activation
system.mem_ctrls.bytesPerActivate::total         1452                       # Bytes accessed per row activation
system.mem_ctrls.totQLat                     51581750                       # Total ticks spent queuing
system.mem_ctrls.totMemAccLat               182438000                       # Total ticks spent from burst creation until serviced by the DRAM
system.mem_ctrls.totBusLat                   34895000                       # Total ticks spent in databus transfers
system.mem_ctrls.avgQLat                      7390.99                       # Average queueing delay per DRAM burst
system.mem_ctrls.avgBusLat                    5000.00                       # Average bus latency per DRAM burst
system.mem_ctrls.avgMemAccLat                26140.99                       # Average memory access latency per DRAM burst
system.mem_ctrls.avgRdBW                       213.61                       # Average DRAM read bandwidth in MiByte/s
system.mem_ctrls.avgWrBW                         0.00                       # Average achieved write bandwidth in MiByte/s
system.mem_ctrls.avgRdBWSys                    213.61                       # Average system read bandwidth in MiByte/s
system.mem_ctrls.avgWrBWSys                      0.00                       # Average system write bandwidth in MiByte/s
system.mem_ctrls.peakBW                      12800.00                       # Theoretical peak bandwidth in MiByte/s
system.mem_ctrls.busUtil                         1.67                       # Data bus utilization in percentage
system.mem_ctrls.busUtilRead                     1.67                       # Data bus utilization in percentage for reads
system.mem_ctrls.busUtilWrite                    0.00                       # Data bus utilization in percentage for writes
system.mem_ctrls.avgRdQLen                       2.19                       # Average read queue length when enqueuing
system.mem_ctrls.avgWrQLen                       0.00                       # Average write queue length when enqueuing
system.mem_ctrls.readRowHits                     5516                       # Number of row buffer hits during reads
system.mem_ctrls.writeRowHits                       0                       # Number of row buffer hits during writes
system.mem_ctrls.readRowHitRate                 79.04                       # Row buffer hit rate for reads
system.mem_ctrls.writeRowHitRate                  nan                       # Row buffer hit rate for writes
system.mem_ctrls.avgGap                     299598.94                       # Average gap between requests
system.mem_ctrls.pageHitRate                    79.04                       # Row buffer hit rate, read and write combined
system.mem_ctrls_0.actEnergy                  6002640                       # Energy for activate commands per rank (pJ)
system.mem_ctrls_0.preEnergy                  3275250                       # Energy for precharge commands per rank (pJ)
system.mem_ctrls_0.readEnergy                28992600                       # Energy for read commands per rank (pJ)
system.mem_ctrls_0.writeEnergy                      0                       # Energy for write commands per rank (pJ)
system.mem_ctrls_0.refreshEnergy            136294080                       # Energy for refresh commands per rank (pJ)
system.mem_ctrls_0.actBackEnergy           1110923730                       # Energy for active background per rank (pJ)
system.mem_ctrls_0.preBackEnergy            277690500                       # Energy for precharge background per rank (pJ)
system.mem_ctrls_0.totalEnergy             1563178800                       # Total energy per rank (pJ)
system.mem_ctrls_0.averagePower            749.016543                       # Core power per rank (mW)
system.mem_ctrls_0.memoryStateTime::IDLE    454681000                       # Time in different power states
system.mem_ctrls_0.memoryStateTime::REF      69680000                       # Time in different power states
system.mem_ctrls_0.memoryStateTime::PRE_PDN            0                       # Time in different power states
system.mem_ctrls_0.memoryStateTime::ACT    1562864500                       # Time in different power states
system.mem_ctrls_0.memoryStateTime::ACT_PDN            0                       # Time in different power states
system.mem_ctrls_1.actEnergy                  4921560                       # Energy for activate commands per rank (pJ)
system.mem_ctrls_1.preEnergy                  2685375                       # Energy for precharge commands per rank (pJ)
system.mem_ctrls_1.readEnergy                24983400                       # Energy for read commands per rank (pJ)
system.mem_ctrls_1.writeEnergy                      0                       # Energy for write commands per rank (pJ)
system.mem_ctrls_1.refreshEnergy            136294080                       # Energy for refresh commands per rank (pJ)
system.mem_ctrls_1.actBackEnergy           1129105305                       # Energy for active background per rank (pJ)
system.mem_ctrls_1.preBackEnergy            261741750                       # Energy for precharge background per rank (pJ)
system.mem_ctrls_1.totalEnergy             1559731470                       # Total energy per rank (pJ)
system.mem_ctrls_1.averagePower            747.364712                       # Core power per rank (mW)
system.mem_ctrls_1.memoryStateTime::IDLE    429954500                       # Time in different power states
system.mem_ctrls_1.memoryStateTime::REF      69680000                       # Time in different power states
system.mem_ctrls_1.memoryStateTime::PRE_PDN            0                       # Time in different power states
system.mem_ctrls_1.memoryStateTime::ACT    1589248000                       # Time in different power states
system.mem_ctrls_1.memoryStateTime::ACT_PDN            0                       # Time in different power states
system.cpu0.branchPred.lookups                 584377                       # Number of BP lookups
system.cpu0.branchPred.condPredicted           582151                       # Number of conditional branches predicted
system.cpu0.branchPred.condIncorrect             5333                       # Number of conditional branches incorrect
system.cpu0.branchPred.BTBLookups              582015                       # Number of BTB lookups
system.cpu0.branchPred.BTBHits                 578864                       # Number of BTB hits
system.cpu0.branchPred.BTBCorrect                   0                       # Number of correct BTB predictions (this stat may not work properly.
system.cpu0.branchPred.BTBHitPct            99.458605                       # BTB Hit Percentage
system.cpu0.branchPred.usedRAS                    789                       # Number of times the RAS was used to get a target.
system.cpu0.branchPred.RASInCorrect                11                       # Number of incorrect RAS predictions.
system.cpu_voltage_domain.voltage                   1                       # Voltage in Volts
system.cpu_clk_domain.clock                       500                       # Clock period in ticks
system.cpu0.dstage2_mmu.stage2_tlb.walker.walks            0                       # Table walker walks requested
system.cpu0.dstage2_mmu.stage2_tlb.walker.walkRequestOrigin_Requested::Data            0                       # Table walker requests started/completed, data/inst
system.cpu0.dstage2_mmu.stage2_tlb.walker.walkRequestOrigin_Requested::Inst            0                       # Table walker requests started/completed, data/inst
system.cpu0.dstage2_mmu.stage2_tlb.walker.walkRequestOrigin_Requested::total            0                       # Table walker requests started/completed, data/inst
system.cpu0.dstage2_mmu.stage2_tlb.walker.walkRequestOrigin_Completed::Data            0                       # Table walker requests started/completed, data/inst
system.cpu0.dstage2_mmu.stage2_tlb.walker.walkRequestOrigin_Completed::Inst            0                       # Table walker requests started/completed, data/inst
system.cpu0.dstage2_mmu.stage2_tlb.walker.walkRequestOrigin_Completed::total            0                       # Table walker requests started/completed, data/inst
system.cpu0.dstage2_mmu.stage2_tlb.walker.walkRequestOrigin::total            0                       # Table walker requests started/completed, data/inst
system.cpu0.dstage2_mmu.stage2_tlb.inst_hits            0                       # ITB inst hits
system.cpu0.dstage2_mmu.stage2_tlb.inst_misses            0                       # ITB inst misses
system.cpu0.dstage2_mmu.stage2_tlb.read_hits            0                       # DTB read hits
system.cpu0.dstage2_mmu.stage2_tlb.read_misses            0                       # DTB read misses
system.cpu0.dstage2_mmu.stage2_tlb.write_hits            0                       # DTB write hits
system.cpu0.dstage2_mmu.stage2_tlb.write_misses            0                       # DTB write misses
system.cpu0.dstage2_mmu.stage2_tlb.flush_tlb            0                       # Number of times complete TLB was flushed
system.cpu0.dstage2_mmu.stage2_tlb.flush_tlb_mva            0                       # Number of times TLB was flushed by MVA
system.cpu0.dstage2_mmu.stage2_tlb.flush_tlb_mva_asid            0                       # Number of times TLB was flushed by MVA & ASID
system.cpu0.dstage2_mmu.stage2_tlb.flush_tlb_asid            0                       # Number of times TLB was flushed by ASID
system.cpu0.dstage2_mmu.stage2_tlb.flush_entries            0                       # Number of entries that have been flushed from TLB
system.cpu0.dstage2_mmu.stage2_tlb.align_faults            0                       # Number of TLB faults due to alignment restrictions
system.cpu0.dstage2_mmu.stage2_tlb.prefetch_faults            0                       # Number of TLB faults due to prefetch
system.cpu0.dstage2_mmu.stage2_tlb.domain_faults            0                       # Number of TLB faults due to domain restrictions
system.cpu0.dstage2_mmu.stage2_tlb.perms_faults            0                       # Number of TLB faults due to permissions restrictions
system.cpu0.dstage2_mmu.stage2_tlb.read_accesses            0                       # DTB read accesses
system.cpu0.dstage2_mmu.stage2_tlb.write_accesses            0                       # DTB write accesses
system.cpu0.dstage2_mmu.stage2_tlb.inst_accesses            0                       # ITB inst accesses
system.cpu0.dstage2_mmu.stage2_tlb.hits             0                       # DTB hits
system.cpu0.dstage2_mmu.stage2_tlb.misses            0                       # DTB misses
system.cpu0.dstage2_mmu.stage2_tlb.accesses            0                       # DTB accesses
system.cpu0.dtb.walker.walks                        0                       # Table walker walks requested
system.cpu0.dtb.walker.walkRequestOrigin_Requested::Data            0                       # Table walker requests started/completed, data/inst
system.cpu0.dtb.walker.walkRequestOrigin_Requested::Inst            0                       # Table walker requests started/completed, data/inst
system.cpu0.dtb.walker.walkRequestOrigin_Requested::total            0                       # Table walker requests started/completed, data/inst
system.cpu0.dtb.walker.walkRequestOrigin_Completed::Data            0                       # Table walker requests started/completed, data/inst
system.cpu0.dtb.walker.walkRequestOrigin_Completed::Inst            0                       # Table walker requests started/completed, data/inst
system.cpu0.dtb.walker.walkRequestOrigin_Completed::total            0                       # Table walker requests started/completed, data/inst
system.cpu0.dtb.walker.walkRequestOrigin::total            0                       # Table walker requests started/completed, data/inst
system.cpu0.dtb.inst_hits                           0                       # ITB inst hits
system.cpu0.dtb.inst_misses                         0                       # ITB inst misses
system.cpu0.dtb.read_hits                           0                       # DTB read hits
system.cpu0.dtb.read_misses                         0                       # DTB read misses
system.cpu0.dtb.write_hits                          0                       # DTB write hits
system.cpu0.dtb.write_misses                        0                       # DTB write misses
system.cpu0.dtb.flush_tlb                           0                       # Number of times complete TLB was flushed
system.cpu0.dtb.flush_tlb_mva                       0                       # Number of times TLB was flushed by MVA
system.cpu0.dtb.flush_tlb_mva_asid                  0                       # Number of times TLB was flushed by MVA & ASID
system.cpu0.dtb.flush_tlb_asid                      0                       # Number of times TLB was flushed by ASID
system.cpu0.dtb.flush_entries                       0                       # Number of entries that have been flushed from TLB
system.cpu0.dtb.align_faults                        0                       # Number of TLB faults due to alignment restrictions
system.cpu0.dtb.prefetch_faults                     0                       # Number of TLB faults due to prefetch
system.cpu0.dtb.domain_faults                       0                       # Number of TLB faults due to domain restrictions
system.cpu0.dtb.perms_faults                        0                       # Number of TLB faults due to permissions restrictions
system.cpu0.dtb.read_accesses                       0                       # DTB read accesses
system.cpu0.dtb.write_accesses                      0                       # DTB write accesses
system.cpu0.dtb.inst_accesses                       0                       # ITB inst accesses
system.cpu0.dtb.hits                                0                       # DTB hits
system.cpu0.dtb.misses                              0                       # DTB misses
system.cpu0.dtb.accesses                            0                       # DTB accesses
system.cpu0.istage2_mmu.stage2_tlb.walker.walks            0                       # Table walker walks requested
system.cpu0.istage2_mmu.stage2_tlb.walker.walkRequestOrigin_Requested::Data            0                       # Table walker requests started/completed, data/inst
system.cpu0.istage2_mmu.stage2_tlb.walker.walkRequestOrigin_Requested::Inst            0                       # Table walker requests started/completed, data/inst
system.cpu0.istage2_mmu.stage2_tlb.walker.walkRequestOrigin_Requested::total            0                       # Table walker requests started/completed, data/inst
system.cpu0.istage2_mmu.stage2_tlb.walker.walkRequestOrigin_Completed::Data            0                       # Table walker requests started/completed, data/inst
system.cpu0.istage2_mmu.stage2_tlb.walker.walkRequestOrigin_Completed::Inst            0                       # Table walker requests started/completed, data/inst
system.cpu0.istage2_mmu.stage2_tlb.walker.walkRequestOrigin_Completed::total            0                       # Table walker requests started/completed, data/inst
system.cpu0.istage2_mmu.stage2_tlb.walker.walkRequestOrigin::total            0                       # Table walker requests started/completed, data/inst
system.cpu0.istage2_mmu.stage2_tlb.inst_hits            0                       # ITB inst hits
system.cpu0.istage2_mmu.stage2_tlb.inst_misses            0                       # ITB inst misses
system.cpu0.istage2_mmu.stage2_tlb.read_hits            0                       # DTB read hits
system.cpu0.istage2_mmu.stage2_tlb.read_misses            0                       # DTB read misses
system.cpu0.istage2_mmu.stage2_tlb.write_hits            0                       # DTB write hits
system.cpu0.istage2_mmu.stage2_tlb.write_misses            0                       # DTB write misses
system.cpu0.istage2_mmu.stage2_tlb.flush_tlb            0                       # Number of times complete TLB was flushed
system.cpu0.istage2_mmu.stage2_tlb.flush_tlb_mva            0                       # Number of times TLB was flushed by MVA
system.cpu0.istage2_mmu.stage2_tlb.flush_tlb_mva_asid            0                       # Number of times TLB was flushed by MVA & ASID
system.cpu0.istage2_mmu.stage2_tlb.flush_tlb_asid            0                       # Number of times TLB was flushed by ASID
system.cpu0.istage2_mmu.stage2_tlb.flush_entries            0                       # Number of entries that have been flushed from TLB
system.cpu0.istage2_mmu.stage2_tlb.align_faults            0                       # Number of TLB faults due to alignment restrictions
system.cpu0.istage2_mmu.stage2_tlb.prefetch_faults            0                       # Number of TLB faults due to prefetch
system.cpu0.istage2_mmu.stage2_tlb.domain_faults            0                       # Number of TLB faults due to domain restrictions
system.cpu0.istage2_mmu.stage2_tlb.perms_faults            0                       # Number of TLB faults due to permissions restrictions
system.cpu0.istage2_mmu.stage2_tlb.read_accesses            0                       # DTB read accesses
system.cpu0.istage2_mmu.stage2_tlb.write_accesses            0                       # DTB write accesses
system.cpu0.istage2_mmu.stage2_tlb.inst_accesses            0                       # ITB inst accesses
system.cpu0.istage2_mmu.stage2_tlb.hits             0                       # DTB hits
system.cpu0.istage2_mmu.stage2_tlb.misses            0                       # DTB misses
system.cpu0.istage2_mmu.stage2_tlb.accesses            0                       # DTB accesses
system.cpu0.itb.walker.walks                        0                       # Table walker walks requested
system.cpu0.itb.walker.walkRequestOrigin_Requested::Data            0                       # Table walker requests started/completed, data/inst
system.cpu0.itb.walker.walkRequestOrigin_Requested::Inst            0                       # Table walker requests started/completed, data/inst
system.cpu0.itb.walker.walkRequestOrigin_Requested::total            0                       # Table walker requests started/completed, data/inst
system.cpu0.itb.walker.walkRequestOrigin_Completed::Data            0                       # Table walker requests started/completed, data/inst
system.cpu0.itb.walker.walkRequestOrigin_Completed::Inst            0                       # Table walker requests started/completed, data/inst
system.cpu0.itb.walker.walkRequestOrigin_Completed::total            0                       # Table walker requests started/completed, data/inst
system.cpu0.itb.walker.walkRequestOrigin::total            0                       # Table walker requests started/completed, data/inst
system.cpu0.itb.inst_hits                           0                       # ITB inst hits
system.cpu0.itb.inst_misses                         0                       # ITB inst misses
system.cpu0.itb.read_hits                           0                       # DTB read hits
system.cpu0.itb.read_misses                         0                       # DTB read misses
system.cpu0.itb.write_hits                          0                       # DTB write hits
system.cpu0.itb.write_misses                        0                       # DTB write misses
system.cpu0.itb.flush_tlb                           0                       # Number of times complete TLB was flushed
system.cpu0.itb.flush_tlb_mva                       0                       # Number of times TLB was flushed by MVA
system.cpu0.itb.flush_tlb_mva_asid                  0                       # Number of times TLB was flushed by MVA & ASID
system.cpu0.itb.flush_tlb_asid                      0                       # Number of times TLB was flushed by ASID
system.cpu0.itb.flush_entries                       0                       # Number of entries that have been flushed from TLB
system.cpu0.itb.align_faults                        0                       # Number of TLB faults due to alignment restrictions
system.cpu0.itb.prefetch_faults                     0                       # Number of TLB faults due to prefetch
system.cpu0.itb.domain_faults                       0                       # Number of TLB faults due to domain restrictions
system.cpu0.itb.perms_faults                        0                       # Number of TLB faults due to permissions restrictions
system.cpu0.itb.read_accesses                       0                       # DTB read accesses
system.cpu0.itb.write_accesses                      0                       # DTB write accesses
system.cpu0.itb.inst_accesses                       0                       # ITB inst accesses
system.cpu0.itb.hits                                0                       # DTB hits
system.cpu0.itb.misses                              0                       # DTB misses
system.cpu0.itb.accesses                            0                       # DTB accesses
system.cpu0.workload.num_syscalls                  95                       # Number of system calls
system.cpu0.numCycles                         4181883                       # number of cpu cycles simulated
system.cpu0.numWorkItemsStarted                     0                       # number of work items this cpu started
system.cpu0.numWorkItemsCompleted                   0                       # number of work items this cpu completed
system.cpu0.fetch.icacheStallCycles           1138322                       # Number of cycles fetch is stalled on an Icache miss
system.cpu0.fetch.Insts                       8520713                       # Number of instructions fetch has processed
system.cpu0.fetch.Branches                     584377                       # Number of branches that fetch encountered
system.cpu0.fetch.predictedBranches            579653                       # Number of branches that fetch has predicted taken
system.cpu0.fetch.Cycles                      2996156                       # Number of cycles fetch has run and was not squashing or blocked
system.cpu0.fetch.SquashCycles                  10801                       # Number of cycles fetch has spent squashing
system.cpu0.fetch.MiscStallCycles                   1                       # Number of cycles fetch has spent waiting on interrupts, or bad addresses, or out of MSHRs
system.cpu0.fetch.PendingTrapStallCycles            4                       # Number of stall cycles due to pending traps
system.cpu0.fetch.CacheLines                  1123589                       # Number of cache lines fetched
system.cpu0.fetch.IcacheSquashes                 1866                       # Number of outstanding Icache misses that were squashed
system.cpu0.fetch.rateDist::samples           4139883                       # Number of instructions fetched each cycle (Total)
system.cpu0.fetch.rateDist::mean             2.060931                       # Number of instructions fetched each cycle (Total)
system.cpu0.fetch.rateDist::stdev            3.067688                       # Number of instructions fetched each cycle (Total)
system.cpu0.fetch.rateDist::underflows              0      0.00%      0.00% # Number of instructions fetched each cycle (Total)
system.cpu0.fetch.rateDist::0                 2644558     63.88%     63.88% # Number of instructions fetched each cycle (Total)
system.cpu0.fetch.rateDist::1                   98924      2.39%     66.27% # Number of instructions fetched each cycle (Total)
system.cpu0.fetch.rateDist::2                  119564      2.89%     69.16% # Number of instructions fetched each cycle (Total)
system.cpu0.fetch.rateDist::3                  109276      2.64%     71.80% # Number of instructions fetched each cycle (Total)
system.cpu0.fetch.rateDist::4                  127676      3.08%     74.88% # Number of instructions fetched each cycle (Total)
system.cpu0.fetch.rateDist::5                  102644      2.48%     77.36% # Number of instructions fetched each cycle (Total)
system.cpu0.fetch.rateDist::6                  112951      2.73%     80.09% # Number of instructions fetched each cycle (Total)
system.cpu0.fetch.rateDist::7                  429818     10.38%     90.47% # Number of instructions fetched each cycle (Total)
system.cpu0.fetch.rateDist::8                  394472      9.53%    100.00% # Number of instructions fetched each cycle (Total)
system.cpu0.fetch.rateDist::overflows               0      0.00%    100.00% # Number of instructions fetched each cycle (Total)
system.cpu0.fetch.rateDist::min_value               0                       # Number of instructions fetched each cycle (Total)
system.cpu0.fetch.rateDist::max_value               8                       # Number of instructions fetched each cycle (Total)
system.cpu0.fetch.rateDist::total             4139883                       # Number of instructions fetched each cycle (Total)
system.cpu0.fetch.branchRate                 0.139740                       # Number of branch fetches per cycle
system.cpu0.fetch.rate                       2.037530                       # Number of inst fetches per cycle
system.cpu0.decode.IdleCycles                  358582                       # Number of cycles decode is idle
system.cpu0.decode.BlockedCycles              2706068                       # Number of cycles decode is blocked
system.cpu0.decode.RunCycles                   310885                       # Number of cycles decode is running
system.cpu0.decode.UnblockCycles               759256                       # Number of cycles decode is unblocking
system.cpu0.decode.SquashCycles                  5092                       # Number of cycles decode is squashing
system.cpu0.decode.BranchResolved                 947                       # Number of times decode resolved a branch
system.cpu0.decode.BranchMispred                  323                       # Number of times decode detected a branch misprediction
system.cpu0.decode.DecodedInsts               8379638                       # Number of instructions handled by decode
system.cpu0.decode.SquashedInsts                 1138                       # Number of squashed instructions handled by decode
system.cpu0.rename.SquashCycles                  5092                       # Number of cycles rename is squashing
system.cpu0.rename.IdleCycles                  615912                       # Number of cycles rename is idle
system.cpu0.rename.BlockCycles                 476941                       # Number of cycles rename is blocking
system.cpu0.rename.serializeStallCycles          9550                       # count of cycles rename stalled for serializing inst
system.cpu0.rename.RunCycles                   799372                       # Number of cycles rename is running
system.cpu0.rename.UnblockCycles              2233016                       # Number of cycles rename is unblocking
system.cpu0.rename.RenamedInsts               8353420                       # Number of instructions processed by rename
system.cpu0.rename.ROBFullEvents                    3                       # Number of times rename has blocked due to ROB full
system.cpu0.rename.IQFullEvents               1524827                       # Number of times rename has blocked due to IQ full
system.cpu0.rename.LQFullEvents                505434                       # Number of times rename has blocked due to LQ full
system.cpu0.rename.SQFullEvents                255172                       # Number of times rename has blocked due to SQ full
system.cpu0.rename.RenamedOperands           10957189                       # Number of destination operands rename has renamed
system.cpu0.rename.RenameLookups             41155857                       # Number of register rename lookups that rename has made
system.cpu0.rename.int_rename_lookups        13865159                       # Number of integer rename lookups
system.cpu0.rename.fp_rename_lookups               22                       # Number of floating rename lookups
system.cpu0.rename.CommittedMaps             10853059                       # Number of HB maps that are committed
system.cpu0.rename.UndoneMaps                  104130                       # Number of HB maps that are undone due to squashing
system.cpu0.rename.serializingInsts               141                       # count of serializing insts renamed
system.cpu0.rename.tempSerializingInsts           143                       # count of temporary serializing insts renamed
system.cpu0.rename.skidInsts                  3935562                       # count of insts added to the skid buffer
system.cpu0.memDep0.insertedLoads             2135317                       # Number of loads inserted to the mem dependence unit.
system.cpu0.memDep0.insertedStores              83347                       # Number of stores inserted to the mem dependence unit.
system.cpu0.memDep0.conflictingLoads             8809                       # Number of conflicting loads.
system.cpu0.memDep0.conflictingStores             561                       # Number of conflicting stores.
system.cpu0.iq.iqInstsAdded                   8327624                       # Number of instructions added to the IQ (excludes non-spec)
system.cpu0.iq.iqNonSpecInstsAdded                281                       # Number of non-speculative instructions added to the IQ
system.cpu0.iq.iqInstsIssued                 12639609                       # Number of instructions issued
system.cpu0.iq.iqSquashedInstsIssued            12707                       # Number of squashed instructions issued
system.cpu0.iq.iqSquashedInstsExamined          58576                       # Number of squashed instructions iterated over during squash; mainly for profiling
system.cpu0.iq.iqSquashedOperandsExamined       204408                       # Number of squashed operands that are examined and possibly removed from graph
system.cpu0.iq.iqSquashedNonSpecRemoved            86                       # Number of squashed non-spec instructions that were removed
system.cpu0.iq.issued_per_cycle::samples      4139883                       # Number of insts issued each cycle
system.cpu0.iq.issued_per_cycle::mean        3.053132                       # Number of insts issued each cycle
system.cpu0.iq.issued_per_cycle::stdev       1.440067                       # Number of insts issued each cycle
system.cpu0.iq.issued_per_cycle::underflows            0      0.00%      0.00% # Number of insts issued each cycle
system.cpu0.iq.issued_per_cycle::0             478549     11.56%     11.56% # Number of insts issued each cycle
system.cpu0.iq.issued_per_cycle::1             324368      7.84%     19.39% # Number of insts issued each cycle
system.cpu0.iq.issued_per_cycle::2             344095      8.31%     27.71% # Number of insts issued each cycle
system.cpu0.iq.issued_per_cycle::3             344433      8.32%     36.03% # Number of insts issued each cycle
system.cpu0.iq.issued_per_cycle::4            2648438     63.97%    100.00% # Number of insts issued each cycle
system.cpu0.iq.issued_per_cycle::overflows            0      0.00%    100.00% # Number of insts issued each cycle
system.cpu0.iq.issued_per_cycle::min_value            0                       # Number of insts issued each cycle
system.cpu0.iq.issued_per_cycle::max_value            4                       # Number of insts issued each cycle
system.cpu0.iq.issued_per_cycle::total        4139883                       # Number of insts issued each cycle
system.cpu0.iq.fu_full::No_OpClass                  0      0.00%      0.00% # attempts to use FU when none available
system.cpu0.iq.fu_full::IntAlu                      0      0.00%      0.00% # attempts to use FU when none available
system.cpu0.iq.fu_full::IntMult                 10794    100.00%    100.00% # attempts to use FU when none available
system.cpu0.iq.fu_full::IntDiv                      0      0.00%    100.00% # attempts to use FU when none available
system.cpu0.iq.fu_full::FloatAdd                    0      0.00%    100.00% # attempts to use FU when none available
system.cpu0.iq.fu_full::FloatCmp                    0      0.00%    100.00% # attempts to use FU when none available
system.cpu0.iq.fu_full::FloatCvt                    0      0.00%    100.00% # attempts to use FU when none available
system.cpu0.iq.fu_full::FloatMult                   0      0.00%    100.00% # attempts to use FU when none available
system.cpu0.iq.fu_full::FloatDiv                    0      0.00%    100.00% # attempts to use FU when none available
system.cpu0.iq.fu_full::FloatSqrt                   0      0.00%    100.00% # attempts to use FU when none available
system.cpu0.iq.fu_full::SimdAdd                     0      0.00%    100.00% # attempts to use FU when none available
system.cpu0.iq.fu_full::SimdAddAcc                  0      0.00%    100.00% # attempts to use FU when none available
system.cpu0.iq.fu_full::SimdAlu                     0      0.00%    100.00% # attempts to use FU when none available
system.cpu0.iq.fu_full::SimdCmp                     0      0.00%    100.00% # attempts to use FU when none available
system.cpu0.iq.fu_full::SimdCvt                     0      0.00%    100.00% # attempts to use FU when none available
system.cpu0.iq.fu_full::SimdMisc                    0      0.00%    100.00% # attempts to use FU when none available
system.cpu0.iq.fu_full::SimdMult                    0      0.00%    100.00% # attempts to use FU when none available
system.cpu0.iq.fu_full::SimdMultAcc                 0      0.00%    100.00% # attempts to use FU when none available
system.cpu0.iq.fu_full::SimdShift                   0      0.00%    100.00% # attempts to use FU when none available
system.cpu0.iq.fu_full::SimdShiftAcc                0      0.00%    100.00% # attempts to use FU when none available
system.cpu0.iq.fu_full::SimdSqrt                    0      0.00%    100.00% # attempts to use FU when none available
system.cpu0.iq.fu_full::SimdFloatAdd                0      0.00%    100.00% # attempts to use FU when none available
system.cpu0.iq.fu_full::SimdFloatAlu                0      0.00%    100.00% # attempts to use FU when none available
system.cpu0.iq.fu_full::SimdFloatCmp                0      0.00%    100.00% # attempts to use FU when none available
system.cpu0.iq.fu_full::SimdFloatCvt                0      0.00%    100.00% # attempts to use FU when none available
system.cpu0.iq.fu_full::SimdFloatDiv                0      0.00%    100.00% # attempts to use FU when none available
system.cpu0.iq.fu_full::SimdFloatMisc               0      0.00%    100.00% # attempts to use FU when none available
system.cpu0.iq.fu_full::SimdFloatMult               0      0.00%    100.00% # attempts to use FU when none available
system.cpu0.iq.fu_full::SimdFloatMultAcc            0      0.00%    100.00% # attempts to use FU when none available
system.cpu0.iq.fu_full::SimdFloatSqrt               0      0.00%    100.00% # attempts to use FU when none available
system.cpu0.iq.fu_full::MemRead                     0      0.00%    100.00% # attempts to use FU when none available
system.cpu0.iq.fu_full::MemWrite                    0      0.00%    100.00% # attempts to use FU when none available
system.cpu0.iq.fu_full::IprAccess                   0      0.00%    100.00% # attempts to use FU when none available
system.cpu0.iq.fu_full::InstPrefetch                0      0.00%    100.00% # attempts to use FU when none available
system.cpu0.iq.FU_type_0::No_OpClass                0      0.00%      0.00% # Type of FU issued
system.cpu0.iq.FU_type_0::IntAlu              4480457     35.45%     35.45% # Type of FU issued
system.cpu0.iq.FU_type_0::IntMult             1606049     12.71%     48.15% # Type of FU issued
system.cpu0.iq.FU_type_0::IntDiv                    0      0.00%     48.15% # Type of FU issued
system.cpu0.iq.FU_type_0::FloatAdd                  0      0.00%     48.15% # Type of FU issued
system.cpu0.iq.FU_type_0::FloatCmp                  0      0.00%     48.15% # Type of FU issued
system.cpu0.iq.FU_type_0::FloatCvt                  0      0.00%     48.15% # Type of FU issued
system.cpu0.iq.FU_type_0::FloatMult                 0      0.00%     48.15% # Type of FU issued
system.cpu0.iq.FU_type_0::FloatDiv                  0      0.00%     48.15% # Type of FU issued
system.cpu0.iq.FU_type_0::FloatSqrt                 0      0.00%     48.15% # Type of FU issued
system.cpu0.iq.FU_type_0::SimdAdd                   0      0.00%     48.15% # Type of FU issued
system.cpu0.iq.FU_type_0::SimdAddAcc                0      0.00%     48.15% # Type of FU issued
system.cpu0.iq.FU_type_0::SimdAlu                   0      0.00%     48.15% # Type of FU issued
system.cpu0.iq.FU_type_0::SimdCmp                   0      0.00%     48.15% # Type of FU issued
system.cpu0.iq.FU_type_0::SimdCvt                   0      0.00%     48.15% # Type of FU issued
system.cpu0.iq.FU_type_0::SimdMisc                  0      0.00%     48.15% # Type of FU issued
system.cpu0.iq.FU_type_0::SimdMult                  0      0.00%     48.15% # Type of FU issued
system.cpu0.iq.FU_type_0::SimdMultAcc               0      0.00%     48.15% # Type of FU issued
system.cpu0.iq.FU_type_0::SimdShift                 0      0.00%     48.15% # Type of FU issued
system.cpu0.iq.FU_type_0::SimdShiftAcc              0      0.00%     48.15% # Type of FU issued
system.cpu0.iq.FU_type_0::SimdSqrt                  0      0.00%     48.15% # Type of FU issued
system.cpu0.iq.FU_type_0::SimdFloatAdd              0      0.00%     48.15% # Type of FU issued
system.cpu0.iq.FU_type_0::SimdFloatAlu              0      0.00%     48.15% # Type of FU issued
system.cpu0.iq.FU_type_0::SimdFloatCmp              0      0.00%     48.15% # Type of FU issued
system.cpu0.iq.FU_type_0::SimdFloatCvt              0      0.00%     48.15% # Type of FU issued
system.cpu0.iq.FU_type_0::SimdFloatDiv              0      0.00%     48.15% # Type of FU issued
system.cpu0.iq.FU_type_0::SimdFloatMisc             3      0.00%     48.15% # Type of FU issued
system.cpu0.iq.FU_type_0::SimdFloatMult             0      0.00%     48.15% # Type of FU issued
system.cpu0.iq.FU_type_0::SimdFloatMultAcc            0      0.00%     48.15% # Type of FU issued
system.cpu0.iq.FU_type_0::SimdFloatSqrt             0      0.00%     48.15% # Type of FU issued
system.cpu0.iq.FU_type_0::MemRead             6470759     51.19%     99.35% # Type of FU issued
system.cpu0.iq.FU_type_0::MemWrite              82341      0.65%    100.00% # Type of FU issued
system.cpu0.iq.FU_type_0::IprAccess                 0      0.00%    100.00% # Type of FU issued
system.cpu0.iq.FU_type_0::InstPrefetch              0      0.00%    100.00% # Type of FU issued
system.cpu0.iq.FU_type_0::total              12639609                       # Type of FU issued
system.cpu0.iq.rate                          3.022468                       # Inst issue rate
system.cpu0.iq.fu_busy_cnt                      10794                       # FU busy when requested
system.cpu0.iq.fu_busy_rate                  0.000854                       # FU busy rate (busy events/executed inst)
system.cpu0.iq.int_inst_queue_reads          29442546                       # Number of integer instruction queue reads
system.cpu0.iq.int_inst_queue_writes          8386521                       # Number of integer instruction queue writes
system.cpu0.iq.int_inst_queue_wakeup_accesses      8283529                       # Number of integer instruction queue wakeup accesses
system.cpu0.iq.fp_inst_queue_reads                 56                       # Number of floating instruction queue reads
system.cpu0.iq.fp_inst_queue_writes                28                       # Number of floating instruction queue writes
system.cpu0.iq.fp_inst_queue_wakeup_accesses           28                       # Number of floating instruction queue wakeup accesses
system.cpu0.iq.int_alu_accesses              12650375                       # Number of integer alu accesses
system.cpu0.iq.fp_alu_accesses                     28                       # Number of floating point alu accesses
system.cpu0.iew.lsq.thread0.forwLoads             135                       # Number of loads that had data forwarded from stores
system.cpu0.iew.lsq.thread0.invAddrLoads            0                       # Number of loads ignored due to an invalid address
system.cpu0.iew.lsq.thread0.squashedLoads        18245                       # Number of loads squashed
system.cpu0.iew.lsq.thread0.ignoredResponses            3                       # Number of memory responses ignored because the instruction is squashed
system.cpu0.iew.lsq.thread0.memOrderViolation           71                       # Number of memory ordering violations
system.cpu0.iew.lsq.thread0.squashedStores         1601                       # Number of stores squashed
system.cpu0.iew.lsq.thread0.invAddrSwpfs            0                       # Number of software prefetches ignored due to an invalid address
system.cpu0.iew.lsq.thread0.blockedLoads            0                       # Number of blocked loads due to partial load-store forwarding
system.cpu0.iew.lsq.thread0.rescheduledLoads          125                       # Number of loads that were rescheduled
system.cpu0.iew.lsq.thread0.cacheBlocked      4355850                       # Number of times an access to memory failed due to the cache being blocked
system.cpu0.iew.iewIdleCycles                       0                       # Number of cycles IEW is idle
system.cpu0.iew.iewSquashCycles                  5092                       # Number of cycles IEW is squashing
system.cpu0.iew.iewBlockCycles                  89528                       # Number of cycles IEW is blocking
system.cpu0.iew.iewUnblockCycles                25854                       # Number of cycles IEW is unblocking
system.cpu0.iew.iewDispatchedInsts            8327912                       # Number of instructions dispatched to IQ
system.cpu0.iew.iewDispSquashedInsts             4593                       # Number of squashed instructions skipped by dispatch
system.cpu0.iew.iewDispLoadInsts              2135317                       # Number of dispatched load instructions
system.cpu0.iew.iewDispStoreInsts               83347                       # Number of dispatched store instructions
system.cpu0.iew.iewDispNonSpecInsts               129                       # Number of dispatched non-speculative instructions
system.cpu0.iew.iewIQFullEvents                 12249                       # Number of times the IQ has become full, causing a stall
system.cpu0.iew.iewLSQFullEvents                 4341                       # Number of times the LSQ has become full, causing a stall
system.cpu0.iew.memOrderViolationEvents            71                       # Number of memory order violations
system.cpu0.iew.predictedTakenIncorrect          4511                       # Number of branches that were predicted taken incorrectly
system.cpu0.iew.predictedNotTakenIncorrect          580                       # Number of branches that were predicted not taken incorrectly
system.cpu0.iew.branchMispredicts                5091                       # Number of branch mispredicts detected at execute
system.cpu0.iew.iewExecutedInsts             12633311                       # Number of executed instructions
system.cpu0.iew.iewExecLoadInsts              6467864                       # Number of load instructions executed
system.cpu0.iew.iewExecSquashedInsts             6298                       # Number of squashed instructions skipped in execute
system.cpu0.iew.exec_swp                            0                       # number of swp insts executed
system.cpu0.iew.exec_nop                            7                       # number of nop insts executed
system.cpu0.iew.exec_refs                     6550060                       # number of memory reference insts executed
system.cpu0.iew.exec_branches                  566140                       # Number of branches executed
system.cpu0.iew.exec_stores                     82196                       # Number of stores executed
system.cpu0.iew.exec_rate                    3.020962                       # Inst execution rate
system.cpu0.iew.wb_sent                       8283886                       # cumulative count of insts sent to commit
system.cpu0.iew.wb_count                      8283557                       # cumulative count of insts written-back
system.cpu0.iew.wb_producers                  6816979                       # num instructions producing a value
system.cpu0.iew.wb_consumers                  9725379                       # num instructions consuming a value
system.cpu0.iew.wb_penalized                        0                       # number of instrctions required to write to 'other' IQ
system.cpu0.iew.wb_rate                      1.980820                       # insts written-back per cycle
system.cpu0.iew.wb_fanout                    0.700947                       # average fanout of values written-back
system.cpu0.iew.wb_penalized_rate                   0                       # fraction of instructions written-back that wrote to 'other' IQ
system.cpu0.commit.commitSquashedInsts          58625                       # The number of squashed insts skipped by commit
system.cpu0.commit.commitNonSpecStalls            195                       # The number of times commit has been forced to stall to communicate backwards
system.cpu0.commit.branchMispredicts             5025                       # The number of times a branch was mispredicted
system.cpu0.commit.committed_per_cycle::samples      4130066                       # Number of insts commited each cycle
system.cpu0.commit.committed_per_cycle::mean     2.002227                       # Number of insts commited each cycle
system.cpu0.commit.committed_per_cycle::stdev     2.725550                       # Number of insts commited each cycle
system.cpu0.commit.committed_per_cycle::underflows            0      0.00%      0.00% # Number of insts commited each cycle
system.cpu0.commit.committed_per_cycle::0      1792007     43.39%     43.39% # Number of insts commited each cycle
system.cpu0.commit.committed_per_cycle::1       848349     20.54%     63.93% # Number of insts commited each cycle
system.cpu0.commit.committed_per_cycle::2       405122      9.81%     73.74% # Number of insts commited each cycle
system.cpu0.commit.committed_per_cycle::3       225002      5.45%     79.19% # Number of insts commited each cycle
system.cpu0.commit.committed_per_cycle::4        46100      1.12%     80.30% # Number of insts commited each cycle
system.cpu0.commit.committed_per_cycle::5       196186      4.75%     85.05% # Number of insts commited each cycle
system.cpu0.commit.committed_per_cycle::6        57230      1.39%     86.44% # Number of insts commited each cycle
system.cpu0.commit.committed_per_cycle::7        53540      1.30%     87.74% # Number of insts commited each cycle
system.cpu0.commit.committed_per_cycle::8       506530     12.26%    100.00% # Number of insts commited each cycle
system.cpu0.commit.committed_per_cycle::overflows            0      0.00%    100.00% # Number of insts commited each cycle
system.cpu0.commit.committed_per_cycle::min_value            0                       # Number of insts commited each cycle
system.cpu0.commit.committed_per_cycle::max_value            8                       # Number of insts commited each cycle
system.cpu0.commit.committed_per_cycle::total      4130066                       # Number of insts commited each cycle
system.cpu0.commit.committedInsts             8261348                       # Number of instructions committed
system.cpu0.commit.committedOps               8269329                       # Number of ops (including micro ops) committed
system.cpu0.commit.swp_count                        0                       # Number of s/w prefetches committed
system.cpu0.commit.refs                       2198818                       # Number of memory references committed
system.cpu0.commit.loads                      2117072                       # Number of loads committed
system.cpu0.commit.membars                        115                       # Number of memory barriers committed
system.cpu0.commit.branches                    565208                       # Number of branches committed
system.cpu0.commit.fp_insts                        28                       # Number of committed floating point instructions.
system.cpu0.commit.int_insts                  7704642                       # Number of committed integer instructions.
system.cpu0.commit.function_calls                 300                       # Number of function calls committed.
system.cpu0.commit.op_class_0::No_OpClass            0      0.00%      0.00% # Class of committed instruction
system.cpu0.commit.op_class_0::IntAlu         4464848     53.99%     53.99% # Class of committed instruction
system.cpu0.commit.op_class_0::IntMult        1605660     19.42%     73.41% # Class of committed instruction
system.cpu0.commit.op_class_0::IntDiv               0      0.00%     73.41% # Class of committed instruction
system.cpu0.commit.op_class_0::FloatAdd             0      0.00%     73.41% # Class of committed instruction
system.cpu0.commit.op_class_0::FloatCmp             0      0.00%     73.41% # Class of committed instruction
system.cpu0.commit.op_class_0::FloatCvt             0      0.00%     73.41% # Class of committed instruction
system.cpu0.commit.op_class_0::FloatMult            0      0.00%     73.41% # Class of committed instruction
system.cpu0.commit.op_class_0::FloatDiv             0      0.00%     73.41% # Class of committed instruction
system.cpu0.commit.op_class_0::FloatSqrt            0      0.00%     73.41% # Class of committed instruction
system.cpu0.commit.op_class_0::SimdAdd              0      0.00%     73.41% # Class of committed instruction
system.cpu0.commit.op_class_0::SimdAddAcc            0      0.00%     73.41% # Class of committed instruction
system.cpu0.commit.op_class_0::SimdAlu              0      0.00%     73.41% # Class of committed instruction
system.cpu0.commit.op_class_0::SimdCmp              0      0.00%     73.41% # Class of committed instruction
system.cpu0.commit.op_class_0::SimdCvt              0      0.00%     73.41% # Class of committed instruction
system.cpu0.commit.op_class_0::SimdMisc             0      0.00%     73.41% # Class of committed instruction
system.cpu0.commit.op_class_0::SimdMult             0      0.00%     73.41% # Class of committed instruction
system.cpu0.commit.op_class_0::SimdMultAcc            0      0.00%     73.41% # Class of committed instruction
system.cpu0.commit.op_class_0::SimdShift            0      0.00%     73.41% # Class of committed instruction
system.cpu0.commit.op_class_0::SimdShiftAcc            0      0.00%     73.41% # Class of committed instruction
system.cpu0.commit.op_class_0::SimdSqrt             0      0.00%     73.41% # Class of committed instruction
system.cpu0.commit.op_class_0::SimdFloatAdd            0      0.00%     73.41% # Class of committed instruction
system.cpu0.commit.op_class_0::SimdFloatAlu            0      0.00%     73.41% # Class of committed instruction
system.cpu0.commit.op_class_0::SimdFloatCmp            0      0.00%     73.41% # Class of committed instruction
system.cpu0.commit.op_class_0::SimdFloatCvt            0      0.00%     73.41% # Class of committed instruction
system.cpu0.commit.op_class_0::SimdFloatDiv            0      0.00%     73.41% # Class of committed instruction
system.cpu0.commit.op_class_0::SimdFloatMisc            3      0.00%     73.41% # Class of committed instruction
system.cpu0.commit.op_class_0::SimdFloatMult            0      0.00%     73.41% # Class of committed instruction
system.cpu0.commit.op_class_0::SimdFloatMultAcc            0      0.00%     73.41% # Class of committed instruction
system.cpu0.commit.op_class_0::SimdFloatSqrt            0      0.00%     73.41% # Class of committed instruction
system.cpu0.commit.op_class_0::MemRead        2117072     25.60%     99.01% # Class of committed instruction
system.cpu0.commit.op_class_0::MemWrite         81746      0.99%    100.00% # Class of committed instruction
system.cpu0.commit.op_class_0::IprAccess            0      0.00%    100.00% # Class of committed instruction
[...]
system.l2.overall_mshr_miss_latency::cpu0.data    299018501                       # number of overall MSHR miss cycles
system.l2.overall_mshr_miss_latency::cpu1.inst      1175000                       # number of overall MSHR miss cycles
system.l2.overall_mshr_miss_latency::cpu1.data     36811250                       # number of overall MSHR miss cycles
system.l2.overall_mshr_miss_latency::cpu2.inst       402750                       # number of overall MSHR miss cycles
system.l2.overall_mshr_miss_latency::cpu2.data     36896500                       # number of overall MSHR miss cycles
system.l2.overall_mshr_miss_latency::cpu3.inst       253000                       # number of overall MSHR miss cycles
system.l2.overall_mshr_miss_latency::cpu3.data     37067750                       # number of overall MSHR miss cycles
system.l2.overall_mshr_miss_latency::total    445366251                       # number of overall MSHR miss cycles
system.l2.ReadReq_mshr_miss_rate::cpu0.inst     0.838762                       # mshr miss rate for ReadReq accesses
system.l2.ReadReq_mshr_miss_rate::cpu0.data     0.000735                       # mshr miss rate for ReadReq accesses
system.l2.ReadReq_mshr_miss_rate::cpu1.inst     0.288462                       # mshr miss rate for ReadReq accesses
system.l2.ReadReq_mshr_miss_rate::cpu1.data     0.000059                       # mshr miss rate for ReadReq accesses
system.l2.ReadReq_mshr_miss_rate::cpu2.inst     0.113208                       # mshr miss rate for ReadReq accesses
system.l2.ReadReq_mshr_miss_rate::cpu2.data     0.000058                       # mshr miss rate for ReadReq accesses
system.l2.ReadReq_mshr_miss_rate::cpu3.inst     0.078431                       # mshr miss rate for ReadReq accesses
system.l2.ReadReq_mshr_miss_rate::cpu3.data     0.000057                       # mshr miss rate for ReadReq accesses
system.l2.ReadReq_mshr_miss_rate::total      0.001093                       # mshr miss rate for ReadReq accesses
system.l2.UpgradeReq_mshr_miss_rate::cpu0.data     0.500000                       # mshr miss rate for UpgradeReq accesses
system.l2.UpgradeReq_mshr_miss_rate::cpu1.data            1                       # mshr miss rate for UpgradeReq accesses
system.l2.UpgradeReq_mshr_miss_rate::total     0.600000                       # mshr miss rate for UpgradeReq accesses
system.l2.ReadExReq_mshr_miss_rate::cpu0.data     0.568674                       # mshr miss rate for ReadExReq accesses
system.l2.ReadExReq_mshr_miss_rate::cpu1.data     0.125977                       # mshr miss rate for ReadExReq accesses
system.l2.ReadExReq_mshr_miss_rate::cpu2.data     0.125977                       # mshr miss rate for ReadExReq accesses
system.l2.ReadExReq_mshr_miss_rate::cpu3.data     0.126221                       # mshr miss rate for ReadExReq accesses
system.l2.ReadExReq_mshr_miss_rate::total     0.305150                       # mshr miss rate for ReadExReq accesses
system.l2.demand_mshr_miss_rate::cpu0.inst     0.838762                       # mshr miss rate for demand accesses
system.l2.demand_mshr_miss_rate::cpu0.data     0.029280                       # mshr miss rate for demand accesses
system.l2.demand_mshr_miss_rate::cpu1.inst     0.288462                       # mshr miss rate for demand accesses
system.l2.demand_mshr_miss_rate::cpu1.data     0.003356                       # mshr miss rate for demand accesses
system.l2.demand_mshr_miss_rate::cpu2.inst     0.113208                       # mshr miss rate for demand accesses
system.l2.demand_mshr_miss_rate::cpu2.data     0.003270                       # mshr miss rate for demand accesses
system.l2.demand_mshr_miss_rate::cpu3.inst     0.078431                       # mshr miss rate for demand accesses
system.l2.demand_mshr_miss_rate::cpu3.data     0.003259                       # mshr miss rate for demand accesses
system.l2.demand_mshr_miss_rate::total       0.010818                       # mshr miss rate for demand accesses
system.l2.overall_mshr_miss_rate::cpu0.inst     0.838762                       # mshr miss rate for overall accesses
system.l2.overall_mshr_miss_rate::cpu0.data     0.029280                       # mshr miss rate for overall accesses
system.l2.overall_mshr_miss_rate::cpu1.inst     0.288462                       # mshr miss rate for overall accesses
system.l2.overall_mshr_miss_rate::cpu1.data     0.003356                       # mshr miss rate for overall accesses
system.l2.overall_mshr_miss_rate::cpu2.inst     0.113208                       # mshr miss rate for overall accesses
system.l2.overall_mshr_miss_rate::cpu2.data     0.003270                       # mshr miss rate for overall accesses
system.l2.overall_mshr_miss_rate::cpu3.inst     0.078431                       # mshr miss rate for overall accesses
system.l2.overall_mshr_miss_rate::cpu3.data     0.003259                       # mshr miss rate for overall accesses
system.l2.overall_mshr_miss_rate::total      0.010818                       # mshr miss rate for overall accesses
system.l2.ReadReq_avg_mshr_miss_latency::cpu0.inst 65517.475728                       # average ReadReq mshr miss latency
system.l2.ReadReq_avg_mshr_miss_latency::cpu0.data 73032.327586                       # average ReadReq mshr miss latency
system.l2.ReadReq_avg_mshr_miss_latency::cpu1.inst 78333.333333                       # average ReadReq mshr miss latency
system.l2.ReadReq_avg_mshr_miss_latency::cpu1.data 64861.111111                       # average ReadReq mshr miss latency
system.l2.ReadReq_avg_mshr_miss_latency::cpu2.inst        67125                       # average ReadReq mshr miss latency
system.l2.ReadReq_avg_mshr_miss_latency::cpu2.data 65583.333333                       # average ReadReq mshr miss latency
system.l2.ReadReq_avg_mshr_miss_latency::cpu3.inst        63250                       # average ReadReq mshr miss latency
system.l2.ReadReq_avg_mshr_miss_latency::cpu3.data 67277.777778                       # average ReadReq mshr miss latency
system.l2.ReadReq_avg_mshr_miss_latency::total 67091.508053                       # average ReadReq mshr miss latency
system.l2.UpgradeReq_avg_mshr_miss_latency::cpu0.data        17751                       # average UpgradeReq mshr miss latency
system.l2.UpgradeReq_avg_mshr_miss_latency::cpu1.data        23000                       # average UpgradeReq mshr miss latency
system.l2.UpgradeReq_avg_mshr_miss_latency::total 19500.666667                       # average UpgradeReq mshr miss latency
system.l2.ReadExReq_avg_mshr_miss_latency::cpu0.data 61180.617183                       # average ReadExReq mshr miss latency
system.l2.ReadExReq_avg_mshr_miss_latency::cpu1.data 70208.333333                       # average ReadExReq mshr miss latency
system.l2.ReadExReq_avg_mshr_miss_latency::cpu2.data 70360.949612                       # average ReadExReq mshr miss latency
system.l2.ReadExReq_avg_mshr_miss_latency::cpu3.data 70526.595745                       # average ReadExReq mshr miss latency
system.l2.ReadExReq_avg_mshr_miss_latency::total 63439.623849                       # average ReadExReq mshr miss latency
system.l2.demand_avg_mshr_miss_latency::cpu0.inst 65517.475728                       # average overall mshr miss latency
system.l2.demand_avg_mshr_miss_latency::cpu0.data 61463.206783                       # average overall mshr miss latency
system.l2.demand_avg_mshr_miss_latency::cpu1.inst 78333.333333                       # average overall mshr miss latency
system.l2.demand_avg_mshr_miss_latency::cpu1.data 70116.666667                       # average overall mshr miss latency
system.l2.demand_avg_mshr_miss_latency::cpu2.inst        67125                       # average overall mshr miss latency
system.l2.demand_avg_mshr_miss_latency::cpu2.data 70279.047619                       # average overall mshr miss latency
system.l2.demand_avg_mshr_miss_latency::cpu3.inst        63250                       # average overall mshr miss latency
system.l2.demand_avg_mshr_miss_latency::cpu3.data 70471.007605                       # average overall mshr miss latency
system.l2.demand_avg_mshr_miss_latency::total 63796.913193                       # average overall mshr miss latency
system.l2.overall_avg_mshr_miss_latency::cpu0.inst 65517.475728                       # average overall mshr miss latency
system.l2.overall_avg_mshr_miss_latency::cpu0.data 61463.206783                       # average overall mshr miss latency
system.l2.overall_avg_mshr_miss_latency::cpu1.inst 78333.333333                       # average overall mshr miss latency
system.l2.overall_avg_mshr_miss_latency::cpu1.data 70116.666667                       # average overall mshr miss latency
system.l2.overall_avg_mshr_miss_latency::cpu2.inst        67125                       # average overall mshr miss latency
system.l2.overall_avg_mshr_miss_latency::cpu2.data 70279.047619                       # average overall mshr miss latency
system.l2.overall_avg_mshr_miss_latency::cpu3.inst        63250                       # average overall mshr miss latency
system.l2.overall_avg_mshr_miss_latency::cpu3.data 70471.007605                       # average overall mshr miss latency
system.l2.overall_avg_mshr_miss_latency::total 63796.913193                       # average overall mshr miss latency
system.l2.no_allocate_misses                        0                       # Number of misses that were no-allocate
system.membus.trans_dist::ReadReq                 682                       # Transaction distribution
system.membus.trans_dist::ReadResp                681                       # Transaction distribution
system.membus.trans_dist::UpgradeReq                8                       # Transaction distribution
system.membus.trans_dist::SCUpgradeReq              7                       # Transaction distribution
system.membus.trans_dist::UpgradeResp               4                       # Transaction distribution
system.membus.trans_dist::ReadExReq              6297                       # Transaction distribution
system.membus.trans_dist::ReadExResp             6297                       # Transaction distribution
system.membus.pkt_count_system.l2.mem_side::system.mem_ctrls.port        13976                       # Packet count per connected master and slave (bytes)
system.membus.pkt_count::total                  13976                       # Packet count per connected master and slave (bytes)
system.membus.pkt_size_system.l2.mem_side::system.mem_ctrls.port       446592                       # Cumulative packet size per connected master and slave (bytes)
system.membus.pkt_size::total                  446592                       # Cumulative packet size per connected master and slave (bytes)
system.membus.snoops                               11                       # Total snoops (count)
system.membus.snoop_fanout::samples              6994                       # Request fanout histogram
system.membus.snoop_fanout::mean                    0                       # Request fanout histogram
system.membus.snoop_fanout::stdev                   0                       # Request fanout histogram
system.membus.snoop_fanout::underflows              0      0.00%      0.00% # Request fanout histogram
system.membus.snoop_fanout::0                    6994    100.00%    100.00% # Request fanout histogram
system.membus.snoop_fanout::1                       0      0.00%    100.00% # Request fanout histogram
system.membus.snoop_fanout::overflows               0      0.00%    100.00% # Request fanout histogram
system.membus.snoop_fanout::min_value               0                       # Request fanout histogram
system.membus.snoop_fanout::max_value               0                       # Request fanout histogram
system.membus.snoop_fanout::total                6994                       # Request fanout histogram
system.membus.reqLayer0.occupancy             7807500                       # Layer occupancy (ticks)
system.membus.reqLayer0.utilization               0.4                       # Layer utilization (%)
system.membus.respLayer1.occupancy           36901747                       # Layer occupancy (ticks)
system.membus.respLayer1.utilization              1.8                       # Layer utilization (%)
system.tol2bus.trans_dist::ReadReq            2122766                       # Transaction distribution
system.tol2bus.trans_dist::ReadResp           2122764                       # Transaction distribution
system.tol2bus.trans_dist::Writeback           546627                       # Transaction distribution
system.tol2bus.trans_dist::UpgradeReq               9                       # Transaction distribution
system.tol2bus.trans_dist::SCUpgradeReq             8                       # Transaction distribution
system.tol2bus.trans_dist::UpgradeResp             17                       # Transaction distribution
system.tol2bus.trans_dist::SCUpgradeFailReq            1                       # Transaction distribution
system.tol2bus.trans_dist::UpgradeFailResp            1                       # Transaction distribution
system.tol2bus.trans_dist::ReadExReq            20645                       # Transaction distribution
system.tol2bus.trans_dist::ReadExResp           20645                       # Transaction distribution
system.tol2bus.pkt_count_system.cpu0.icache.mem_side::system.l2.cpu_side         1226                       # Packet count per connected master and slave (bytes)
system.tol2bus.pkt_count_system.cpu0.dcache.mem_side::system.l2.cpu_side       845260                       # Packet count per connected master and slave (bytes)
system.tol2bus.pkt_count_system.cpu1.icache.mem_side::system.l2.cpu_side          104                       # Packet count per connected master and slave (bytes)
system.tol2bus.pkt_count_system.cpu1.dcache.mem_side::system.l2.cpu_side       827947                       # Packet count per connected master and slave (bytes)
system.tol2bus.pkt_count_system.cpu2.icache.mem_side::system.l2.cpu_side          106                       # Packet count per connected master and slave (bytes)
system.tol2bus.pkt_count_system.cpu2.dcache.mem_side::system.l2.cpu_side       829471                       # Packet count per connected master and slave (bytes)
system.tol2bus.pkt_count_system.cpu3.icache.mem_side::system.l2.cpu_side          102                       # Packet count per connected master and slave (bytes)
system.tol2bus.pkt_count_system.cpu3.dcache.mem_side::system.l2.cpu_side       831131                       # Packet count per connected master and slave (bytes)
system.tol2bus.pkt_count::total               3335347                       # Packet count per connected master and slave (bytes)
system.tol2bus.pkt_size_system.cpu0.icache.mem_side::system.l2.cpu_side        39168                       # Cumulative packet size per connected master and slave (bytes)
system.tol2bus.pkt_size_system.cpu0.dcache.mem_side::system.l2.cpu_side     19586560                       # Cumulative packet size per connected master and slave (bytes)
system.tol2bus.pkt_size_system.cpu1.icache.mem_side::system.l2.cpu_side         3328                       # Cumulative packet size per connected master and slave (bytes)
system.tol2bus.pkt_size_system.cpu1.dcache.mem_side::system.l2.cpu_side     18784960                       # Cumulative packet size per connected master and slave (bytes)
system.tol2bus.pkt_size_system.cpu2.icache.mem_side::system.l2.cpu_side         3392                       # Cumulative packet size per connected master and slave (bytes)
system.tol2bus.pkt_size_system.cpu2.dcache.mem_side::system.l2.cpu_side     18878400                       # Cumulative packet size per connected master and slave (bytes)
system.tol2bus.pkt_size_system.cpu3.icache.mem_side::system.l2.cpu_side         3264                       # Cumulative packet size per connected master and slave (bytes)
system.tol2bus.pkt_size_system.cpu3.dcache.mem_side::system.l2.cpu_side     18983296                       # Cumulative packet size per connected master and slave (bytes)
system.tol2bus.pkt_size::total               76282368                       # Cumulative packet size per connected master and slave (bytes)
system.tol2bus.snoops                         1498136                       # Total snoops (count)
system.tol2bus.snoop_fanout::samples          2690056                       # Request fanout histogram
system.tol2bus.snoop_fanout::mean                   7                       # Request fanout histogram
system.tol2bus.snoop_fanout::stdev                  0                       # Request fanout histogram
system.tol2bus.snoop_fanout::underflows             0      0.00%      0.00% # Request fanout histogram
system.tol2bus.snoop_fanout::0                      0      0.00%      0.00% # Request fanout histogram
system.tol2bus.snoop_fanout::1                      0      0.00%      0.00% # Request fanout histogram
system.tol2bus.snoop_fanout::2                      0      0.00%      0.00% # Request fanout histogram
system.tol2bus.snoop_fanout::3                      0      0.00%      0.00% # Request fanout histogram
system.tol2bus.snoop_fanout::4                      0      0.00%      0.00% # Request fanout histogram
system.tol2bus.snoop_fanout::5                      0      0.00%      0.00% # Request fanout histogram
system.tol2bus.snoop_fanout::6                      0      0.00%      0.00% # Request fanout histogram
system.tol2bus.snoop_fanout::7                2690056    100.00%    100.00% # Request fanout histogram
system.tol2bus.snoop_fanout::8                      0      0.00%    100.00% # Request fanout histogram
system.tol2bus.snoop_fanout::overflows              0      0.00%    100.00% # Request fanout histogram
system.tol2bus.snoop_fanout::min_value              7                       # Request fanout histogram
system.tol2bus.snoop_fanout::max_value              7                       # Request fanout histogram
system.tol2bus.snoop_fanout::total            2690056                       # Request fanout histogram
system.tol2bus.reqLayer0.occupancy         1891655000                       # Layer occupancy (ticks)
system.tol2bus.reqLayer0.utilization             90.5                       # Layer utilization (%)
system.tol2bus.respLayer0.occupancy           1017739                       # Layer occupancy (ticks)
system.tol2bus.respLayer0.utilization             0.0                       # Layer utilization (%)
system.tol2bus.respLayer1.occupancy         860021398                       # Layer occupancy (ticks)
system.tol2bus.respLayer1.utilization            41.1                       # Layer utilization (%)
system.tol2bus.respLayer4.occupancy             84229                       # Layer occupancy (ticks)
system.tol2bus.respLayer4.utilization             0.0                       # Layer utilization (%)
system.tol2bus.respLayer5.occupancy         851680486                       # Layer occupancy (ticks)
system.tol2bus.respLayer5.utilization            40.7                       # Layer utilization (%)
system.tol2bus.respLayer8.occupancy             86721                       # Layer occupancy (ticks)
system.tol2bus.respLayer8.utilization             0.0                       # Layer utilization (%)
system.tol2bus.respLayer9.occupancy         851894831                       # Layer occupancy (ticks)
system.tol2bus.respLayer9.utilization            40.7                       # Layer utilization (%)
system.tol2bus.respLayer12.occupancy            80977                       # Layer occupancy (ticks)
system.tol2bus.respLayer12.utilization            0.0                       # Layer utilization (%)
system.tol2bus.respLayer13.occupancy        851793377                       # Layer occupancy (ticks)
system.tol2bus.respLayer13.utilization           40.7                       # Layer utilization (%)

---------- End Simulation Statistics   ----------
