
---------- Begin Simulation Statistics ----------
sim_seconds                                  0.004341                       # Number of seconds simulated
sim_ticks                                  4341085000                       # Number of ticks simulated
final_tick                                 4341085000                       # Number of ticks from beginning of simulation (restored from checkpoints and never reset)
sim_freq                                 1000000000000                       # Frequency of simulated ticks
host_inst_rate                                 176038                       # Simulator instruction rate (inst/s)
host_op_rate                                   176152                       # Simulator op (including micro ops) rate (op/s)
host_tick_rate                               23870915                       # Simulator tick rate (ticks/s)
host_mem_usage                                 656676                       # Number of bytes of host memory used
host_seconds                                   181.86                       # Real time elapsed on the host
sim_insts                                    32013761                       # Number of instructions simulated
sim_ops                                      32034418                       # Number of ops (including micro ops) simulated
system.voltage_domain.voltage                       1                       # Voltage in Volts
system.clk_domain.clock                          1000                       # Clock period in ticks
system.mem_ctrls.bytes_read::cpu0.inst          33536                       # Number of bytes read from this memory
system.mem_ctrls.bytes_read::cpu0.data         343808                       # Number of bytes read from this memory
system.mem_ctrls.bytes_read::cpu1.inst           1088                       # Number of bytes read from this memory
system.mem_ctrls.bytes_read::cpu1.data          66432                       # Number of bytes read from this memory
system.mem_ctrls.bytes_read::total             444864                       # Number of bytes read from this memory
system.mem_ctrls.bytes_inst_read::cpu0.inst        33536                       # Number of instructions bytes read from this memory
system.mem_ctrls.bytes_inst_read::cpu1.inst         1088                       # Number of instructions bytes read from this memory
system.mem_ctrls.bytes_inst_read::total         34624                       # Number of instructions bytes read from this memory
system.mem_ctrls.num_reads::cpu0.inst             524                       # Number of read requests responded to by this memory
system.mem_ctrls.num_reads::cpu0.data            5372                       # Number of read requests responded to by this memory
system.mem_ctrls.num_reads::cpu1.inst              17                       # Number of read requests responded to by this memory
system.mem_ctrls.num_reads::cpu1.data            1038                       # Number of read requests responded to by this memory
system.mem_ctrls.num_reads::total                6951                       # Number of read requests responded to by this memory
system.mem_ctrls.bw_read::cpu0.inst           7725258                       # Total read bandwidth from this memory (bytes/s)
system.mem_ctrls.bw_read::cpu0.data          79198634                       # Total read bandwidth from this memory (bytes/s)
system.mem_ctrls.bw_read::cpu1.inst            250629                       # Total read bandwidth from this memory (bytes/s)
system.mem_ctrls.bw_read::cpu1.data          15303087                       # Total read bandwidth from this memory (bytes/s)
system.mem_ctrls.bw_read::total             102477606                       # Total read bandwidth from this memory (bytes/s)
system.mem_ctrls.bw_inst_read::cpu0.inst      7725258                       # Instruction read bandwidth from this memory (bytes/s)
system.mem_ctrls.bw_inst_read::cpu1.inst       250629                       # Instruction read bandwidth from this memory (bytes/s)
system.mem_ctrls.bw_inst_read::total          7975886                       # Instruction read bandwidth from this memory (bytes/s)
system.mem_ctrls.bw_total::cpu0.inst          7725258                       # Total bandwidth to/from this memory (bytes/s)
system.mem_ctrls.bw_total::cpu0.data         79198634                       # Total bandwidth to/from this memory (bytes/s)
system.mem_ctrls.bw_total::cpu1.inst           250629                       # Total bandwidth to/from this memory (bytes/s)
system.mem_ctrls.bw_total::cpu1.data         15303087                       # Total bandwidth to/from this memory (bytes/s)
system.mem_ctrls.bw_total::total            102477606                       # Total bandwidth to/from this memory (bytes/s)
system.mem_ctrls.readReqs                        6951                       # Number of read requests accepted
system.mem_ctrls.writeReqs                          0                       # Number of write requests accepted
system.mem_ctrls.readBursts                      6951                       # Number of DRAM read bursts, including those serviced by the write queue
system.mem_ctrls.writeBursts                        0                       # Number of DRAM write bursts, including those merged in the write queue
system.mem_ctrls.bytesReadDRAM                 444864                       # Total number of bytes read from DRAM
system.mem_ctrls.bytesReadWrQ                       0                       # Total number of bytes read from write queue
system.mem_ctrls.bytesWritten                       0                       # Total number of bytes written to DRAM
system.mem_ctrls.bytesReadSys                  444864                       # Total read bytes from the system interface side
system.mem_ctrls.bytesWrittenSys                    0                       # Total written bytes from the system interface side
system.mem_ctrls.servicedByWrQ                      0                       # Number of DRAM read bursts serviced by the write queue
system.mem_ctrls.mergedWrBursts                     0                       # Number of DRAM write bursts merged with an existing one
system.mem_ctrls.neitherReadNorWriteReqs            5                       # Number of requests that are neither read nor write
system.mem_ctrls.perBankRdBursts::0               509                       # Per bank write bursts
system.mem_ctrls.perBankRdBursts::1               506                       # Per bank write bursts
system.mem_ctrls.perBankRdBursts::2               518                       # Per bank write bursts
system.mem_ctrls.perBankRdBursts::3               472                       # Per bank write bursts
system.mem_ctrls.perBankRdBursts::4               421                       # Per bank write bursts
system.mem_ctrls.perBankRdBursts::5               409                       # Per bank write bursts
system.mem_ctrls.perBankRdBursts::6               464                       # Per bank write bursts
system.mem_ctrls.perBankRdBursts::7               415                       # Per bank write bursts
system.mem_ctrls.perBankRdBursts::8               398                       # Per bank write bursts
system.mem_ctrls.perBankRdBursts::9               394                       # Per bank write bursts
system.mem_ctrls.perBankRdBursts::10              384                       # Per bank write bursts
system.mem_ctrls.perBankRdBursts::11              396                       # Per bank write bursts
system.mem_ctrls.perBankRdBursts::12              390                       # Per bank write bursts
system.mem_ctrls.perBankRdBursts::13              417                       # Per bank write bursts
system.mem_ctrls.perBankRdBursts::14              422                       # Per bank write bursts
system.mem_ctrls.perBankRdBursts::15              436                       # Per bank write bursts
system.mem_ctrls.perBankWrBursts::0                 0                       # Per bank write bursts
system.mem_ctrls.perBankWrBursts::1                 0                       # Per bank write bursts
system.mem_ctrls.perBankWrBursts::2                 0                       # Per bank write bursts
system.mem_ctrls.perBankWrBursts::3                 0                       # Per bank write bursts
system.mem_ctrls.perBankWrBursts::4                 0                       # Per bank write bursts
system.mem_ctrls.perBankWrBursts::5                 0                       # Per bank write bursts
system.mem_ctrls.perBankWrBursts::6                 0                       # Per bank write bursts
system.mem_ctrls.perBankWrBursts::7                 0                       # Per bank write bursts
system.mem_ctrls.perBankWrBursts::8                 0                       # Per bank write bursts
system.mem_ctrls.perBankWrBursts::9                 0                       # Per bank write bursts
system.mem_ctrls.perBankWrBursts::10                0                       # Per bank write bursts
system.mem_ctrls.perBankWrBursts::11                0                       # Per bank write bursts
system.mem_ctrls.perBankWrBursts::12                0                       # Per bank write bursts
system.mem_ctrls.perBankWrBursts::13                0                       # Per bank write bursts
system.mem_ctrls.perBankWrBursts::14                0                       # Per bank write bursts
system.mem_ctrls.perBankWrBursts::15                0                       # Per bank write bursts
system.mem_ctrls.numRdRetry                         0                       # Number of times read queue was full causing retry
system.mem_ctrls.numWrRetry                         0                       # Number of times write queue was full causing retry
system.mem_ctrls.totGap                    4341041500                       # Total gap between requests
system.mem_ctrls.readPktSize::0                     0                       # Read request sizes (log2)
system.mem_ctrls.readPktSize::1                     0                       # Read request sizes (log2)
system.mem_ctrls.readPktSize::2                     0                       # Read request sizes (log2)
system.mem_ctrls.readPktSize::3                     0                       # Read request sizes (log2)
system.mem_ctrls.readPktSize::4                     0                       # Read request sizes (log2)
system.mem_ctrls.readPktSize::5                     0                       # Read request sizes (log2)
system.mem_ctrls.readPktSize::6                  6951                       # Read request sizes (log2)
system.mem_ctrls.writePktSize::0                    0                       # Write request sizes (log2)
system.mem_ctrls.writePktSize::1                    0                       # Write request sizes (log2)
system.mem_ctrls.writePktSize::2                    0                       # Write request sizes (log2)
system.mem_ctrls.writePktSize::3                    0                       # Write request sizes (log2)
system.mem_ctrls.writePktSize::4                    0                       # Write request sizes (log2)
system.mem_ctrls.writePktSize::5                    0                       # Write request sizes (log2)
system.mem_ctrls.writePktSize::6                    0                       # Write request sizes (log2)
system.mem_ctrls.rdQLenPdf::0                    6333                       # What read queue length does an incoming req see
system.mem_ctrls.rdQLenPdf::1                     527                       # What read queue length does an incoming req see
system.mem_ctrls.rdQLenPdf::2                      66                       # What read queue length does an incoming req see
system.mem_ctrls.rdQLenPdf::3                      17                       # What read queue length does an incoming req see
system.mem_ctrls.rdQLenPdf::4                       7                       # What read queue length does an incoming req see
system.mem_ctrls.rdQLenPdf::5                       1                       # What read queue length does an incoming req see
system.mem_ctrls.rdQLenPdf::6                       0                       # What read queue length does an incoming req see
system.mem_ctrls.rdQLenPdf::7                       0                       # What read queue length does an incoming req see
system.mem_ctrls.rdQLenPdf::8                       0                       # What read queue length does an incoming req see
system.mem_ctrls.rdQLenPdf::9                       0                       # What read queue length does an incoming req see
system.mem_ctrls.rdQLenPdf::10                      0                       # What read queue length does an incoming req see
system.mem_ctrls.rdQLenPdf::11                      0                       # What read queue length does an incoming req see
system.mem_ctrls.rdQLenPdf::12                      0                       # What read queue length does an incoming req see
system.mem_ctrls.rdQLenPdf::13                      0                       # What read queue length does an incoming req see
system.mem_ctrls.rdQLenPdf::14                      0                       # What read queue length does an incoming req see
system.mem_ctrls.rdQLenPdf::15                      0                       # What read queue length does an incoming req see
system.mem_ctrls.rdQLenPdf::16                      0                       # What read queue length does an incoming req see
system.mem_ctrls.rdQLenPdf::17                      0                       # What read queue length does an incoming req see
system.mem_ctrls.rdQLenPdf::18                      0                       # What read queue length does an incoming req see
system.mem_ctrls.rdQLenPdf::19                      0                       # What read queue length does an incoming req see
system.mem_ctrls.rdQLenPdf::20                      0                       # What read queue length does an incoming req see
system.mem_ctrls.rdQLenPdf::21                      0                       # What read queue length does an incoming req see
system.mem_ctrls.rdQLenPdf::22                      0                       # What read queue length does an incoming req see
system.mem_ctrls.rdQLenPdf::23                      0                       # What read queue length does an incoming req see
system.mem_ctrls.rdQLenPdf::24                      0                       # What read queue length does an incoming req see
system.mem_ctrls.rdQLenPdf::25                      0                       # What read queue length does an incoming req see
system.mem_ctrls.rdQLenPdf::26                      0                       # What read queue length does an incoming req see
system.mem_ctrls.rdQLenPdf::27                      0                       # What read queue length does an incoming req see
system.mem_ctrls.rdQLenPdf::28                      0                       # What read queue length does an incoming req see
system.mem_ctrls.rdQLenPdf::29                      0                       # What read queue length does an incoming req see
system.mem_ctrls.rdQLenPdf::30                      0                       # What read queue length does an incoming req see
system.mem_ctrls.rdQLenPdf::31                      0                       # What read queue length does an incoming req see
system.mem_ctrls.wrQLenPdf::0                       0                       # What write queue length does an incoming req see
system.mem_ctrls.wrQLenPdf::1                       0                       # What write queue length does an incoming req see
system.mem_ctrls.wrQLenPdf::2                       0                       # What write queue length does an incoming req see
system.mem_ctrls.wrQLenPdf::3                       0                       # What write queue length does an incoming req see
system.mem_ctrls.wrQLenPdf::4                       0                       # What write queue length does an incoming req see
system.mem_ctrls.wrQLenPdf::5                       0                       # What write queue length does an incoming req see
system.mem_ctrls.wrQLenPdf::6                       0                       # What write queue length does an incoming req see
system.mem_ctrls.wrQLenPdf::7                       0                       # What write queue length does an incoming req see
system.mem_ctrls.wrQLenPdf::8                       0                       # What write queue length does an incoming req see
system.mem_ctrls.wrQLenPdf::9                       0                       # What write queue length does an incoming req see
system.mem_ctrls.wrQLenPdf::10                      0                       # What write queue length does an incoming req see
system.mem_ctrls.wrQLenPdf::11                      0                       # What write queue length does an incoming req see
system.mem_ctrls.wrQLenPdf::12                      0                       # What write queue length does an incoming req see
system.mem_ctrls.wrQLenPdf::13                      0                       # What write queue length does an incoming req see
system.mem_ctrls.wrQLenPdf::14                      0                       # What write queue length does an incoming req see
system.mem_ctrls.wrQLenPdf::15                      0                       # What write queue length does an incoming req see
system.mem_ctrls.wrQLenPdf::16                      0                       # What write queue length does an incoming req see
system.mem_ctrls.wrQLenPdf::17                      0                       # What write queue length does an incoming req see
system.mem_ctrls.wrQLenPdf::18                      0                       # What write queue length does an incoming req see
system.mem_ctrls.wrQLenPdf::19                      0                       # What write queue length does an incoming req see
system.mem_ctrls.wrQLenPdf::20                      0                       # What write queue length does an incoming req see
system.mem_ctrls.wrQLenPdf::21                      0                       # What write queue length does an incoming req see
system.mem_ctrls.wrQLenPdf::22                      0                       # What write queue length does an incoming req see
system.mem_ctrls.wrQLenPdf::23                      0                       # What write queue length does an incoming req see
system.mem_ctrls.wrQLenPdf::24                      0                       # What write queue length does an incoming req see
system.mem_ctrls.wrQLenPdf::25                      0                       # What write queue length does an incoming req see
system.mem_ctrls.wrQLenPdf::26                      0                       # What write queue length does an incoming req see
system.mem_ctrls.wrQLenPdf::27                      0                       # What write queue length does an incoming req see
system.mem_ctrls.wrQLenPdf::28                      0                       # What write queue length does an incoming req see
system.mem_ctrls.wrQLenPdf::29                      0                       # What write queue length does an incoming req see
system.mem_ctrls.wrQLenPdf::30                      0                       # What write queue length does an incoming req see
system.mem_ctrls.wrQLenPdf::31                      0                       # What write queue length does an incoming req see
system.mem_ctrls.wrQLenPdf::32                      0                       # What write queue length does an incoming req see
system.mem_ctrls.wrQLenPdf::33                      0                       # What write queue length does an incoming req see
system.mem_ctrls.wrQLenPdf::34                      0                       # What write queue length does an incoming req see
system.mem_ctrls.wrQLenPdf::35                      0                       # What write queue length does an incoming req see
system.mem_ctrls.wrQLenPdf::36                      0                       # What write queue length does an incoming req see
system.mem_ctrls.wrQLenPdf::37                      0                       # What write queue length does an incoming req see
system.mem_ctrls.wrQLenPdf::38                      0                       # What write queue length does an incoming req see
system.mem_ctrls.wrQLenPdf::39                      0                       # What write queue length does an incoming req see
system.mem_ctrls.wrQLenPdf::40                      0                       # What write queue length does an incoming req see
system.mem_ctrls.wrQLenPdf::41                      0                       # What write queue length does an incoming req see
system.mem_ctrls.wrQLenPdf::42                      0                       # What write queue length does an incoming req see
system.mem_ctrls.wrQLenPdf::43                      0                       # What write queue length does an incoming req see
system.mem_ctrls.wrQLenPdf::44                      0                       # What write queue length does an incoming req see
system.mem_ctrls.wrQLenPdf::45                      0                       # What write queue length does an incoming req see
system.mem_ctrls.wrQLenPdf::46                      0                       # What write queue length does an incoming req see
system.mem_ctrls.wrQLenPdf::47                      0                       # What write queue length does an incoming req see
system.mem_ctrls.wrQLenPdf::48                      0                       # What write queue length does an incoming req see
system.mem_ctrls.wrQLenPdf::49                      0                       # What write queue length does an incoming req see
system.mem_ctrls.wrQLenPdf::50                      0                       # What write queue length does an incoming req see
system.mem_ctrls.wrQLenPdf::51                      0                       # What write queue length does an incoming req see
system.mem_ctrls.wrQLenPdf::52                      0                       # What write queue length does an incoming req see
system.mem_ctrls.wrQLenPdf::53                      0                       # What write queue length does an incoming req see
system.mem_ctrls.wrQLenPdf::54                      0                       # What write queue length does an incoming req see
system.mem_ctrls.wrQLenPdf::55                      0                       # What write queue length does an incoming req see
system.mem_ctrls.wrQLenPdf::56                      0                       # What write queue length does an incoming req see
system.mem_ctrls.wrQLenPdf::57                      0                       # What write queue length does an incoming req see
system.mem_ctrls.wrQLenPdf::58                      0                       # What write queue length does an incoming req see
system.mem_ctrls.wrQLenPdf::59                      0                       # What write queue length does an incoming req see
system.mem_ctrls.wrQLenPdf::60                      0                       # What write queue length does an incoming req see
system.mem_ctrls.wrQLenPdf::61                      0                       # What write queue length does an incoming req see
system.mem_ctrls.wrQLenPdf::62                      0                       # What write queue length does an incoming req see
system.mem_ctrls.wrQLenPdf::63                      0                       # What write queue length does an incoming req see
system.mem_ctrls.bytesPerActivate::samples         1523                       # Bytes accessed per row activation
system.mem_ctrls.bytesPerActivate::mean    290.920552                       # Bytes accessed per row activation
system.mem_ctrls.bytesPerActivate::gmean   181.424415                       # Bytes accessed per row activation
system.mem_ctrls.bytesPerActivate::stdev   341.456047                       # Bytes accessed per row activation
system.mem_ctrls.bytesPerActivate::0-127          155     10.18%     10.18% # Bytes accessed per row activation
system.mem_ctrls.bytesPerActivate::128-255         1027     67.43%     77.61% # Bytes accessed per row activation
system.mem_ctrls.bytesPerActivate::256-383           33      2.17%     79.78% # Bytes accessed per row activation
system.mem_ctrls.bytesPerActivate::384-511           18      1.18%     80.96% # Bytes accessed per row activation
system.mem_ctrls.bytesPerActivate::512-639           10      0.66%     81.62% # Bytes accessed per row activation
system.mem_ctrls.bytesPerActivate::640-767           13      0.85%     82.47% # Bytes accessed per row activation
system.mem_ctrls.bytesPerActivate::768-895            8      0.53%     82.99% # Bytes accessed per row activation
system.mem_ctrls.bytesPerActivate::896-1023            9      0.59%     83.59% # Bytes accessed per row activation
system.mem_ctrls.bytesPerActivate::1024-1151          250     16.41%    100.00% # Bytes accessed per row activation
system.mem_ctrls.bytesPerActivate::total         1523                       # Bytes accessed per row activation
system.mem_ctrls.totQLat                     44837750                       # Total ticks spent queuing
system.mem_ctrls.totMemAccLat               175169000                       # Total ticks spent from burst creation until serviced by the DRAM
system.mem_ctrls.totBusLat                   34755000                       # Total ticks spent in databus transfers
system.mem_ctrls.avgQLat                      6450.55                       # Average queueing delay per DRAM burst
system.mem_ctrls.avgBusLat                    5000.00                       # Average bus latency per DRAM burst
system.mem_ctrls.avgMemAccLat                25200.55                       # Average memory access latency per DRAM burst
system.mem_ctrls.avgRdBW                       102.48                       # Average DRAM read bandwidth in MiByte/s
system.mem_ctrls.avgWrBW                         0.00                       # Average achieved write bandwidth in MiByte/s
system.mem_ctrls.avgRdBWSys                    102.48                       # Average system read bandwidth in MiByte/s
system.mem_ctrls.avgWrBWSys                      0.00                       # Average system write bandwidth in MiByte/s
system.mem_ctrls.peakBW                      12800.00                       # Theoretical peak bandwidth in MiByte/s
system.mem_ctrls.busUtil                         0.80                       # Data bus utilization in percentage
system.mem_ctrls.busUtilRead                     0.80                       # Data bus utilization in percentage for reads
system.mem_ctrls.busUtilWrite                    0.00                       # Data bus utilization in percentage for writes
system.mem_ctrls.avgRdQLen                       1.02                       # Average read queue length when enqueuing
system.mem_ctrls.avgWrQLen                       0.00                       # Average write queue length when enqueuing
system.mem_ctrls.readRowHits                     5417                       # Number of row buffer hits during reads
system.mem_ctrls.writeRowHits                       0                       # Number of row buffer hits during writes
system.mem_ctrls.readRowHitRate                 77.93                       # Row buffer hit rate for reads
system.mem_ctrls.writeRowHitRate                  nan                       # Row buffer hit rate for writes
system.mem_ctrls.avgGap                     624520.43                       # Average gap between requests
system.mem_ctrls.pageHitRate                    77.93                       # Row buffer hit rate, read and write combined
system.mem_ctrls_0.actEnergy                  6184080                       # Energy for activate commands per rank (pJ)
system.mem_ctrls_0.preEnergy                  3374250                       # Energy for precharge commands per rank (pJ)
system.mem_ctrls_0.readEnergy                28797600                       # Energy for read commands per rank (pJ)
system.mem_ctrls_0.writeEnergy                      0                       # Energy for write commands per rank (pJ)
system.mem_ctrls_0.refreshEnergy            283267920                       # Energy for refresh commands per rank (pJ)
system.mem_ctrls_0.actBackEnergy           2258437185                       # Energy for active background per rank (pJ)
system.mem_ctrls_0.preBackEnergy            621235500                       # Energy for precharge background per rank (pJ)
system.mem_ctrls_0.totalEnergy             3201296535                       # Total energy per rank (pJ)
system.mem_ctrls_0.averagePower            738.101912                       # Core power per rank (mW)
system.mem_ctrls_0.memoryStateTime::IDLE   1019237500                       # Time in different power states
system.mem_ctrls_0.memoryStateTime::REF     144820000                       # Time in different power states
system.mem_ctrls_0.memoryStateTime::PRE_PDN            0                       # Time in different power states
system.mem_ctrls_0.memoryStateTime::ACT    3173244000                       # Time in different power states
system.mem_ctrls_0.memoryStateTime::ACT_PDN            0                       # Time in different power states
system.mem_ctrls_1.actEnergy                  5269320                       # Energy for activate commands per rank (pJ)
system.mem_ctrls_1.preEnergy                  2875125                       # Energy for precharge commands per rank (pJ)
system.mem_ctrls_1.readEnergy                24967800                       # Energy for read commands per rank (pJ)
system.mem_ctrls_1.writeEnergy                      0                       # Energy for write commands per rank (pJ)
system.mem_ctrls_1.refreshEnergy            283267920                       # Energy for refresh commands per rank (pJ)
system.mem_ctrls_1.actBackEnergy           2275688520                       # Energy for active background per rank (pJ)
system.mem_ctrls_1.preBackEnergy            606102750                       # Energy for precharge background per rank (pJ)
system.mem_ctrls_1.totalEnergy             3198171435                       # Total energy per rank (pJ)
system.mem_ctrls_1.averagePower            737.381378                       # Core power per rank (mW)
system.mem_ctrls_1.memoryStateTime::IDLE    995695000                       # Time in different power states
system.mem_ctrls_1.memoryStateTime::REF     144820000                       # Time in different power states
system.mem_ctrls_1.memoryStateTime::PRE_PDN            0                       # Time in different power states
system.mem_ctrls_1.memoryStateTime::ACT    3198504500                       # Time in different power states
system.mem_ctrls_1.memoryStateTime::ACT_PDN            0                       # Time in different power states
system.cpu0.branchPred.lookups                1138705                       # Number of BP lookups
system.cpu0.branchPred.condPredicted          1136352                       # Number of conditional branches predicted
system.cpu0.branchPred.condIncorrect             9461                       # Number of conditional branches incorrect
system.cpu0.branchPred.BTBLookups             1136252                       # Number of BTB lookups
system.cpu0.branchPred.BTBHits                1132742                       # Number of BTB hits
system.cpu0.branchPred.BTBCorrect                   0                       # Number of correct BTB predictions (this stat may not work properly.
system.cpu0.branchPred.BTBHitPct            99.691090                       # BTB Hit Percentage
system.cpu0.branchPred.usedRAS                    800                       # Number of times the RAS was used to get a target.
system.cpu0.branchPred.RASInCorrect                12                       # Number of incorrect RAS predictions.
system.cpu_voltage_domain.voltage                   1                       # Voltage in Volts
system.cpu_clk_domain.clock                       500                       # Clock period in ticks
system.cpu0.dstage2_mmu.stage2_tlb.walker.walks            0                       # Table walker walks requested
system.cpu0.dstage2_mmu.stage2_tlb.walker.walkRequestOrigin_Requested::Data            0                       # Table walker requests started/completed, data/inst
system.cpu0.dstage2_mmu.stage2_tlb.walker.walkRequestOrigin_Requested::Inst            0                       # Table walker requests started/completed, data/inst
system.cpu0.dstage2_mmu.stage2_tlb.walker.walkRequestOrigin_Requested::total            0                       # Table walker requests started/completed, data/inst
system.cpu0.dstage2_mmu.stage2_tlb.walker.walkRequestOrigin_Completed::Data            0                       # Table walker requests started/completed, data/inst
system.cpu0.dstage2_mmu.stage2_tlb.walker.walkRequestOrigin_Completed::Inst            0                       # Table walker requests started/completed, data/inst
system.cpu0.dstage2_mmu.stage2_tlb.walker.walkRequestOrigin_Completed::total            0                       # Table walker requests started/completed, data/inst
system.cpu0.dstage2_mmu.stage2_tlb.walker.walkRequestOrigin::total            0                       # Table walker requests started/completed, data/inst
system.cpu0.dstage2_mmu.stage2_tlb.inst_hits            0                       # ITB inst hits
system.cpu0.dstage2_mmu.stage2_tlb.inst_misses            0                       # ITB inst misses
system.cpu0.dstage2_mmu.stage2_tlb.read_hits            0                       # DTB read hits
system.cpu0.dstage2_mmu.stage2_tlb.read_misses            0                       # DTB read misses
system.cpu0.dstage2_mmu.stage2_tlb.write_hits            0                       # DTB write hits
system.cpu0.dstage2_mmu.stage2_tlb.write_misses            0                       # DTB write misses
system.cpu0.dstage2_mmu.stage2_tlb.flush_tlb            0                       # Number of times complete TLB was flushed
system.cpu0.dstage2_mmu.stage2_tlb.flush_tlb_mva            0                       # Number of times TLB was flushed by MVA
system.cpu0.dstage2_mmu.stage2_tlb.flush_tlb_mva_asid            0                       # Number of times TLB was flushed by MVA & ASID
system.cpu0.dstage2_mmu.stage2_tlb.flush_tlb_asid            0                       # Number of times TLB was flushed by ASID
system.cpu0.dstage2_mmu.stage2_tlb.flush_entries            0                       # Number of entries that have been flushed from TLB
system.cpu0.dstage2_mmu.stage2_tlb.align_faults            0                       # Number of TLB faults due to alignment restrictions
system.cpu0.dstage2_mmu.stage2_tlb.prefetch_faults            0                       # Number of TLB faults due to prefetch
system.cpu0.dstage2_mmu.stage2_tlb.domain_faults            0                       # Number of TLB faults due to domain restrictions
system.cpu0.dstage2_mmu.stage2_tlb.perms_faults            0                       # Number of TLB faults due to permissions restrictions
system.cpu0.dstage2_mmu.stage2_tlb.read_accesses            0                       # DTB read accesses
system.cpu0.dstage2_mmu.stage2_tlb.write_accesses            0                       # DTB write accesses
system.cpu0.dstage2_mmu.stage2_tlb.inst_accesses            0                       # ITB inst accesses
system.cpu0.dstage2_mmu.stage2_tlb.hits             0                       # DTB hits
system.cpu0.dstage2_mmu.stage2_tlb.misses            0                       # DTB misses
system.cpu0.dstage2_mmu.stage2_tlb.accesses            0                       # DTB accesses
system.cpu0.dtb.walker.walks                        0                       # Table walker walks requested
system.cpu0.dtb.walker.walkRequestOrigin_Requested::Data            0                       # Table walker requests started/completed, data/inst
system.cpu0.dtb.walker.walkRequestOrigin_Requested::Inst            0                       # Table walker requests started/completed, data/inst
system.cpu0.dtb.walker.walkRequestOrigin_Requested::total            0                       # Table walker requests started/completed, data/inst
system.cpu0.dtb.walker.walkRequestOrigin_Completed::Data            0                       # Table walker requests started/completed, data/inst
system.cpu0.dtb.walker.walkRequestOrigin_Completed::Inst            0                       # Table walker requests started/completed, data/inst
system.cpu0.dtb.walker.walkRequestOrigin_Completed::total            0                       # Table walker requests started/completed, data/inst
system.cpu0.dtb.walker.walkRequestOrigin::total            0                       # Table walker requests started/completed, data/inst
system.cpu0.dtb.inst_hits                           0                       # ITB inst hits
system.cpu0.dtb.inst_misses                         0                       # ITB inst misses
system.cpu0.dtb.read_hits                           0                       # DTB read hits
system.cpu0.dtb.read_misses                         0                       # DTB read misses
system.cpu0.dtb.write_hits                          0                       # DTB write hits
system.cpu0.dtb.write_misses                        0                       # DTB write misses
system.cpu0.dtb.flush_tlb                           0                       # Number of times complete TLB was flushed
system.cpu0.dtb.flush_tlb_mva                       0                       # Number of times TLB was flushed by MVA
system.cpu0.dtb.flush_tlb_mva_asid                  0                       # Number of times TLB was flushed by MVA & ASID
system.cpu0.dtb.flush_tlb_asid                      0                       # Number of times TLB was flushed by ASID
system.cpu0.dtb.flush_entries                       0                       # Number of entries that have been flushed from TLB
system.cpu0.dtb.align_faults                        0                       # Number of TLB faults due to alignment restrictions
system.cpu0.dtb.prefetch_faults                     0                       # Number of TLB faults due to prefetch
system.cpu0.dtb.domain_faults                       0                       # Number of TLB faults due to domain restrictions
system.cpu0.dtb.perms_faults                        0                       # Number of TLB faults due to permissions restrictions
system.cpu0.dtb.read_accesses                       0                       # DTB read accesses
system.cpu0.dtb.write_accesses                      0                       # DTB write accesses
system.cpu0.dtb.inst_accesses                       0                       # ITB inst accesses
system.cpu0.dtb.hits                                0                       # DTB hits
system.cpu0.dtb.misses                              0                       # DTB misses
system.cpu0.dtb.accesses                            0                       # DTB accesses
system.cpu0.istage2_mmu.stage2_tlb.walker.walks            0                       # Table walker walks requested
system.cpu0.istage2_mmu.stage2_tlb.walker.walkRequestOrigin_Requested::Data            0                       # Table walker requests started/completed, data/inst
system.cpu0.istage2_mmu.stage2_tlb.walker.walkRequestOrigin_Requested::Inst            0                       # Table walker requests started/completed, data/inst
system.cpu0.istage2_mmu.stage2_tlb.walker.walkRequestOrigin_Requested::total            0                       # Table walker requests started/completed, data/inst
system.cpu0.istage2_mmu.stage2_tlb.walker.walkRequestOrigin_Completed::Data            0                       # Table walker requests started/completed, data/inst
system.cpu0.istage2_mmu.stage2_tlb.walker.walkRequestOrigin_Completed::Inst            0                       # Table walker requests started/completed, data/inst
system.cpu0.istage2_mmu.stage2_tlb.walker.walkRequestOrigin_Completed::total            0                       # Table walker requests started/completed, data/inst
system.cpu0.istage2_mmu.stage2_tlb.walker.walkRequestOrigin::total            0                       # Table walker requests started/completed, data/inst
system.cpu0.istage2_mmu.stage2_tlb.inst_hits            0                       # ITB inst hits
system.cpu0.istage2_mmu.stage2_tlb.inst_misses            0                       # ITB inst misses
system.cpu0.istage2_mmu.stage2_tlb.read_hits            0                       # DTB read hits
system.cpu0.istage2_mmu.stage2_tlb.read_misses            0                       # DTB read misses
system.cpu0.istage2_mmu.stage2_tlb.write_hits            0                       # DTB write hits
system.cpu0.istage2_mmu.stage2_tlb.write_misses            0                       # DTB write misses
system.cpu0.istage2_mmu.stage2_tlb.flush_tlb            0                       # Number of times complete TLB was flushed
system.cpu0.istage2_mmu.stage2_tlb.flush_tlb_mva            0                       # Number of times TLB was flushed by MVA
system.cpu0.istage2_mmu.stage2_tlb.flush_tlb_mva_asid            0                       # Number of times TLB was flushed by MVA & ASID
system.cpu0.istage2_mmu.stage2_tlb.flush_tlb_asid            0                       # Number of times TLB was flushed by ASID
system.cpu0.istage2_mmu.stage2_tlb.flush_entries            0                       # Number of entries that have been flushed from TLB
system.cpu0.istage2_mmu.stage2_tlb.align_faults            0                       # Number of TLB faults due to alignment restrictions
system.cpu0.istage2_mmu.stage2_tlb.prefetch_faults            0                       # Number of TLB faults due to prefetch
system.cpu0.istage2_mmu.stage2_tlb.domain_faults            0                       # Number of TLB faults due to domain restrictions
system.cpu0.istage2_mmu.stage2_tlb.perms_faults            0                       # Number of TLB faults due to permissions restrictions
system.cpu0.istage2_mmu.stage2_tlb.read_accesses            0                       # DTB read accesses
system.cpu0.istage2_mmu.stage2_tlb.write_accesses            0                       # DTB write accesses
system.cpu0.istage2_mmu.stage2_tlb.inst_accesses            0                       # ITB inst accesses
system.cpu0.istage2_mmu.stage2_tlb.hits             0                       # DTB hits
system.cpu0.istage2_mmu.stage2_tlb.misses            0                       # DTB misses
system.cpu0.istage2_mmu.stage2_tlb.accesses            0                       # DTB accesses
system.cpu0.itb.walker.walks                        0                       # Table walker walks requested
system.cpu0.itb.walker.walkRequestOrigin_Requested::Data            0                       # Table walker requests started/completed, data/inst
system.cpu0.itb.walker.walkRequestOrigin_Requested::Inst            0                       # Table walker requests started/completed, data/inst
system.cpu0.itb.walker.walkRequestOrigin_Requested::total            0                       # Table walker requests started/completed, data/inst
system.cpu0.itb.walker.walkRequestOrigin_Completed::Data            0                       # Table walker requests started/completed, data/inst
system.cpu0.itb.walker.walkRequestOrigin_Completed::Inst            0                       # Table walker requests started/completed, data/inst
system.cpu0.itb.walker.walkRequestOrigin_Completed::total            0                       # Table walker requests started/completed, data/inst
system.cpu0.itb.walker.walkRequestOrigin::total            0                       # Table walker requests started/completed, data/inst
system.cpu0.itb.inst_hits                           0                       # ITB inst hits
system.cpu0.itb.inst_misses                         0                       # ITB inst misses
system.cpu0.itb.read_hits                           0                       # DTB read hits
system.cpu0.itb.read_misses                         0                       # DTB read misses
system.cpu0.itb.write_hits                          0                       # DTB write hits
system.cpu0.itb.write_misses                        0                       # DTB write misses
system.cpu0.itb.flush_tlb                           0                       # Number of times complete TLB was flushed
system.cpu0.itb.flush_tlb_mva                       0                       # Number of times TLB was flushed by MVA
system.cpu0.itb.flush_tlb_mva_asid                  0                       # Number of times TLB was flushed by MVA & ASID
system.cpu0.itb.flush_tlb_asid                      0                       # Number of times TLB was flushed by ASID
system.cpu0.itb.flush_entries                       0                       # Number of entries that have been flushed from TLB
system.cpu0.itb.align_faults                        0                       # Number of TLB faults due to alignment restrictions
system.cpu0.itb.prefetch_faults                     0                       # Number of TLB faults due to prefetch
system.cpu0.itb.domain_faults                       0                       # Number of TLB faults due to domain restrictions
system.cpu0.itb.perms_faults                        0                       # Number of TLB faults due to permissions restrictions
system.cpu0.itb.read_accesses                       0                       # DTB read accesses
system.cpu0.itb.write_accesses                      0                       # DTB write accesses
system.cpu0.itb.inst_accesses                       0                       # ITB inst accesses
system.cpu0.itb.hits                                0                       # DTB hits
system.cpu0.itb.misses                              0                       # DTB misses
system.cpu0.itb.accesses                            0                       # DTB accesses
system.cpu0.workload.num_syscalls                  35                       # Number of system calls
system.cpu0.numCycles                         8682171                       # number of cpu cycles simulated
system.cpu0.numWorkItemsStarted                     0                       # number of work items this cpu started
system.cpu0.numWorkItemsCompleted                   0                       # number of work items this cpu completed
system.cpu0.fetch.icacheStallCycles           2249830                       # Number of cycles fetch is stalled on an Icache miss
system.cpu0.fetch.Insts                      16832680                       # Number of instructions fetch has processed
system.cpu0.fetch.Branches                    1138705                       # Number of branches that fetch encountered
system.cpu0.fetch.predictedBranches           1133542                       # Number of branches that fetch has predicted taken
system.cpu0.fetch.Cycles                      6380823                       # Number of cycles fetch has run and was not squashing or blocked
system.cpu0.fetch.SquashCycles                  19019                       # Number of cycles fetch has spent squashing
system.cpu0.fetch.PendingTrapStallCycles            4                       # Number of stall cycles due to pending traps
system.cpu0.fetch.CacheLines                  2232349                       # Number of cache lines fetched
system.cpu0.fetch.IcacheSquashes                 3642                       # Number of outstanding Icache misses that were squashed
system.cpu0.fetch.rateDist::samples           8640166                       # Number of instructions fetched each cycle (Total)
system.cpu0.fetch.rateDist::mean             1.949982                       # Number of instructions fetched each cycle (Total)
system.cpu0.fetch.rateDist::stdev            2.887646                       # Number of instructions fetched each cycle (Total)
system.cpu0.fetch.rateDist::underflows              0      0.00%      0.00% # Number of instructions fetched each cycle (Total)
system.cpu0.fetch.rateDist::0                 5379369     62.26%     62.26% # Number of instructions fetched each cycle (Total)
system.cpu0.fetch.rateDist::1                  299153      3.46%     65.72% # Number of instructions fetched each cycle (Total)
system.cpu0.fetch.rateDist::2                  327484      3.79%     69.51% # Number of instructions fetched each cycle (Total)
system.cpu0.fetch.rateDist::3                  303429      3.51%     73.02% # Number of instructions fetched each cycle (Total)
system.cpu0.fetch.rateDist::4                  313933      3.63%     76.66% # Number of instructions fetched each cycle (Total)
system.cpu0.fetch.rateDist::5                  318345      3.68%     80.34% # Number of instructions fetched each cycle (Total)
system.cpu0.fetch.rateDist::6                  323500      3.74%     84.09% # Number of instructions fetched each cycle (Total)
system.cpu0.fetch.rateDist::7                  804325      9.31%     93.40% # Number of instructions fetched each cycle (Total)
system.cpu0.fetch.rateDist::8                  570628      6.60%    100.00% # Number of instructions fetched each cycle (Total)
system.cpu0.fetch.rateDist::overflows               0      0.00%    100.00% # Number of instructions fetched each cycle (Total)
system.cpu0.fetch.rateDist::min_value               0                       # Number of instructions fetched each cycle (Total)
system.cpu0.fetch.rateDist::max_value               8                       # Number of instructions fetched each cycle (Total)
system.cpu0.fetch.rateDist::total             8640166                       # Number of instructions fetched each cycle (Total)
system.cpu0.fetch.branchRate                 0.131154                       # Number of branch fetches per cycle
system.cpu0.fetch.rate                       1.938764                       # Number of inst fetches per cycle
system.cpu0.decode.IdleCycles                  758598                       # Number of cycles decode is idle
system.cpu0.decode.BlockedCycles              5782442                       # Number of cycles decode is blocked
system.cpu0.decode.RunCycles                   150131                       # Number of cycles decode is running
system.cpu0.decode.UnblockCycles              1939798                       # Number of cycles decode is unblocking
system.cpu0.decode.SquashCycles                  9197                       # Number of cycles decode is squashing
system.cpu0.decode.BranchResolved                1088                       # Number of times decode resolved a branch
system.cpu0.decode.BranchMispred                  324                       # Number of times decode detected a branch misprediction
system.cpu0.decode.DecodedInsts              16557190                       # Number of instructions handled by decode
system.cpu0.decode.SquashedInsts                 1192                       # Number of squashed instructions handled by decode
system.cpu0.rename.SquashCycles                  9197                       # Number of cycles rename is squashing
system.cpu0.rename.IdleCycles                 1385073                       # Number of cycles rename is idle
system.cpu0.rename.BlockCycles                 447753                       # Number of cycles rename is blocking
system.cpu0.rename.serializeStallCycles          8773                       # count of cycles rename stalled for serializing inst
system.cpu0.rename.RunCycles                  1459043                       # Number of cycles rename is running
system.cpu0.rename.UnblockCycles              5330327                       # Number of cycles rename is unblocking
system.cpu0.rename.RenamedInsts              16510872                       # Number of instructions processed by rename
system.cpu0.rename.ROBFullEvents                    2                       # Number of times rename has blocked due to ROB full
system.cpu0.rename.IQFullEvents               4888092                       # Number of times rename has blocked due to IQ full
system.cpu0.rename.LQFullEvents                  4915                       # Number of times rename has blocked due to LQ full
system.cpu0.rename.SQFullEvents                257534                       # Number of times rename has blocked due to SQ full
system.cpu0.rename.RenamedOperands           21796512                       # Number of destination operands rename has renamed
system.cpu0.rename.RenameLookups             81401354                       # Number of register rename lookups that rename has made
system.cpu0.rename.int_rename_lookups        27439729                       # Number of integer rename lookups
system.cpu0.rename.fp_rename_lookups               22                       # Number of floating rename lookups
system.cpu0.rename.CommittedMaps             21383857                       # Number of HB maps that are committed
system.cpu0.rename.UndoneMaps                  412655                       # Number of HB maps that are undone due to squashing
system.cpu0.rename.serializingInsts               134                       # count of serializing insts renamed
system.cpu0.rename.tempSerializingInsts           134                       # count of temporary serializing insts renamed
system.cpu0.rename.skidInsts                  9592279                       # count of insts added to the skid buffer
system.cpu0.memDep0.insertedLoads             4310279                       # Number of loads inserted to the mem dependence unit.
system.cpu0.memDep0.insertedStores              95925                       # Number of stores inserted to the mem dependence unit.
system.cpu0.memDep0.conflictingLoads            17107                       # Number of conflicting loads.
system.cpu0.memDep0.conflictingStores             426                       # Number of conflicting stores.
system.cpu0.iq.iqInstsAdded                  16466491                       # Number of instructions added to the IQ (excludes non-spec)
system.cpu0.iq.iqNonSpecInstsAdded                276                       # Number of non-speculative instructions added to the IQ
system.cpu0.iq.iqInstsIssued                 16770405                       # Number of instructions issued
system.cpu0.iq.iqSquashedInstsIssued            33360                       # Number of squashed instructions issued
system.cpu0.iq.iqSquashedInstsExamined         279775                       # Number of squashed instructions iterated over during squash; mainly for profiling
system.cpu0.iq.iqSquashedOperandsExamined      1296129                       # Number of squashed operands that are examined and possibly removed from graph
system.cpu0.iq.iqSquashedNonSpecRemoved            86                       # Number of squashed non-spec instructions that were removed
system.cpu0.iq.issued_per_cycle::samples      8640166                       # Number of insts issued each cycle
system.cpu0.iq.issued_per_cycle::mean        1.940982                       # Number of insts issued each cycle
system.cpu0.iq.issued_per_cycle::stdev       0.328316                       # Number of insts issued each cycle
system.cpu0.iq.issued_per_cycle::underflows            0      0.00%      0.00% # Number of insts issued each cycle
system.cpu0.iq.issued_per_cycle::0             225751      2.61%      2.61% # Number of insts issued each cycle
system.cpu0.iq.issued_per_cycle::1              58425      0.68%      3.29% # Number of insts issued each cycle
system.cpu0.iq.issued_per_cycle::2            8355990     96.71%    100.00% # Number of insts issued each cycle
system.cpu0.iq.issued_per_cycle::overflows            0      0.00%    100.00% # Number of insts issued each cycle
system.cpu0.iq.issued_per_cycle::min_value            0                       # Number of insts issued each cycle
system.cpu0.iq.issued_per_cycle::max_value            2                       # Number of insts issued each cycle
system.cpu0.iq.issued_per_cycle::total        8640166                       # Number of insts issued each cycle
system.cpu0.iq.fu_full::No_OpClass                  0                       # attempts to use FU when none available
system.cpu0.iq.fu_full::IntAlu                      0                       # attempts to use FU when none available
system.cpu0.iq.fu_full::IntMult                     0                       # attempts to use FU when none available
system.cpu0.iq.fu_full::IntDiv                      0                       # attempts to use FU when none available
system.cpu0.iq.fu_full::FloatAdd                    0                       # attempts to use FU when none available
system.cpu0.iq.fu_full::FloatCmp                    0                       # attempts to use FU when none available
system.cpu0.iq.fu_full::FloatCvt                    0                       # attempts to use FU when none available
system.cpu0.iq.fu_full::FloatMult                   0                       # attempts to use FU when none available
system.cpu0.iq.fu_full::FloatDiv                    0                       # attempts to use FU when none available
system.cpu0.iq.fu_full::FloatSqrt                   0                       # attempts to use FU when none available
system.cpu0.iq.fu_full::SimdAdd                     0                       # attempts to use FU when none available
system.cpu0.iq.fu_full::SimdAddAcc                  0                       # attempts to use FU when none available
system.cpu0.iq.fu_full::SimdAlu                     0                       # attempts to use FU when none available
system.cpu0.iq.fu_full::SimdCmp                     0                       # attempts to use FU when none available
system.cpu0.iq.fu_full::SimdCvt                     0                       # attempts to use FU when none available
system.cpu0.iq.fu_full::SimdMisc                    0                       # attempts to use FU when none available
system.cpu0.iq.fu_full::SimdMult                    0                       # attempts to use FU when none available
system.cpu0.iq.fu_full::SimdMultAcc                 0                       # attempts to use FU when none available
system.cpu0.iq.fu_full::SimdShift                   0                       # attempts to use FU when none available
system.cpu0.iq.fu_full::SimdShiftAcc                0                       # attempts to use FU when none available
system.cpu0.iq.fu_full::SimdSqrt                    0                       # attempts to use FU when none available
system.cpu0.iq.fu_full::SimdFloatAdd                0                       # attempts to use FU when none available
system.cpu0.iq.fu_full::SimdFloatAlu                0                       # attempts to use FU when none available
system.cpu0.iq.fu_full::SimdFloatCmp                0                       # attempts to use FU when none available
system.cpu0.iq.fu_full::SimdFloatCvt                0                       # attempts to use FU when none available
system.cpu0.iq.fu_full::SimdFloatDiv                0                       # attempts to use FU when none available
system.cpu0.iq.fu_full::SimdFloatMisc               0                       # attempts to use FU when none available
system.cpu0.iq.fu_full::SimdFloatMult               0                       # attempts to use FU when none available
system.cpu0.iq.fu_full::SimdFloatMultAcc            0                       # attempts to use FU when none available
system.cpu0.iq.fu_full::SimdFloatSqrt               0                       # attempts to use FU when none available
system.cpu0.iq.fu_full::MemRead                     0                       # attempts to use FU when none available
system.cpu0.iq.fu_full::MemWrite                    0                       # attempts to use FU when none available
system.cpu0.iq.fu_full::IprAccess                   0                       # attempts to use FU when none available
system.cpu0.iq.fu_full::InstPrefetch                0                       # attempts to use FU when none available
system.cpu0.iq.FU_type_0::No_OpClass                0      0.00%      0.00% # Type of FU issued
system.cpu0.iq.FU_type_0::IntAlu              8699277     51.87%     51.87% # Type of FU issued
system.cpu0.iq.FU_type_0::IntMult             3178785     18.95%     70.83% # Type of FU issued
system.cpu0.iq.FU_type_0::IntDiv                    0      0.00%     70.83% # Type of FU issued
system.cpu0.iq.FU_type_0::FloatAdd                  0      0.00%     70.83% # Type of FU issued
system.cpu0.iq.FU_type_0::FloatCmp                  0      0.00%     70.83% # Type of FU issued
system.cpu0.iq.FU_type_0::FloatCvt                  0      0.00%     70.83% # Type of FU issued
system.cpu0.iq.FU_type_0::FloatMult                 0      0.00%     70.83% # Type of FU issued
system.cpu0.iq.FU_type_0::FloatDiv                  0      0.00%     70.83% # Type of FU issued
system.cpu0.iq.FU_type_0::FloatSqrt                 0      0.00%     70.83% # Type of FU issued
system.cpu0.iq.FU_type_0::SimdAdd                   0      0.00%     70.83% # Type of FU issued
system.cpu0.iq.FU_type_0::SimdAddAcc                0      0.00%     70.83% # Type of FU issued
system.cpu0.iq.FU_type_0::SimdAlu                   0      0.00%     70.83% # Type of FU issued
system.cpu0.iq.FU_type_0::SimdCmp                   0      0.00%     70.83% # Type of FU issued
system.cpu0.iq.FU_type_0::SimdCvt                   0      0.00%     70.83% # Type of FU issued
system.cpu0.iq.FU_type_0::SimdMisc                  0      0.00%     70.83% # Type of FU issued
system.cpu0.iq.FU_type_0::SimdMult                  0      0.00%     70.83% # Type of FU issued
system.cpu0.iq.FU_type_0::SimdMultAcc               0      0.00%     70.83% # Type of FU issued
system.cpu0.iq.FU_type_0::SimdShift                 0      0.00%     70.83% # Type of FU issued
system.cpu0.iq.FU_type_0::SimdShiftAcc              0      0.00%     70.83% # Type of FU issued
system.cpu0.iq.FU_type_0::SimdSqrt                  0      0.00%     70.83% # Type of FU issued
system.cpu0.iq.FU_type_0::SimdFloatAdd              0      0.00%     70.83% # Type of FU issued
system.cpu0.iq.FU_type_0::SimdFloatAlu              0      0.00%     70.83% # Type of FU issued
system.cpu0.iq.FU_type_0::SimdFloatCmp              0      0.00%     70.83% # Type of FU issued
system.cpu0.iq.FU_type_0::SimdFloatCvt              0      0.00%     70.83% # Type of FU issued
system.cpu0.iq.FU_type_0::SimdFloatDiv              0      0.00%     70.83% # Type of FU issued
system.cpu0.iq.FU_type_0::SimdFloatMisc             3      0.00%     70.83% # Type of FU issued
system.cpu0.iq.FU_type_0::SimdFloatMult             0      0.00%     70.83% # Type of FU issued
system.cpu0.iq.FU_type_0::SimdFloatMultAcc            0      0.00%     70.83% # Type of FU issued
system.cpu0.iq.FU_type_0::SimdFloatSqrt             0      0.00%     70.83% # Type of FU issued
system.cpu0.iq.FU_type_0::MemRead             4797938     28.61%     99.44% # Type of FU issued
system.cpu0.iq.FU_type_0::MemWrite              94402      0.56%    100.00% # Type of FU issued
system.cpu0.iq.FU_type_0::IprAccess                 0      0.00%    100.00% # Type of FU issued
system.cpu0.iq.FU_type_0::InstPrefetch              0      0.00%    100.00% # Type of FU issued
system.cpu0.iq.FU_type_0::total              16770405                       # Type of FU issued
system.cpu0.iq.rate                          1.931591                       # Inst issue rate
system.cpu0.iq.fu_busy_cnt                          0                       # FU busy when requested
system.cpu0.iq.fu_busy_rate                         0                       # FU busy rate (busy events/executed inst)
system.cpu0.iq.int_inst_queue_reads          42214280                       # Number of integer instruction queue reads
system.cpu0.iq.int_inst_queue_writes         16746550                       # Number of integer instruction queue writes
system.cpu0.iq.int_inst_queue_wakeup_accesses     16203768                       # Number of integer instruction queue wakeup accesses
system.cpu0.iq.fp_inst_queue_reads                 56                       # Number of floating instruction queue reads
system.cpu0.iq.fp_inst_queue_writes                28                       # Number of floating instruction queue writes
system.cpu0.iq.fp_inst_queue_wakeup_accesses           28                       # Number of floating instruction queue wakeup accesses
system.cpu0.iq.int_alu_accesses              16770377                       # Number of integer alu accesses
system.cpu0.iq.fp_alu_accesses                     28                       # Number of floating point alu accesses
system.cpu0.iew.lsq.thread0.forwLoads             126                       # Number of loads that had data forwarded from stores
system.cpu0.iew.lsq.thread0.invAddrLoads            0                       # Number of loads ignored due to an invalid address
system.cpu0.iew.lsq.thread0.squashedLoads        79607                       # Number of loads squashed
system.cpu0.iew.lsq.thread0.ignoredResponses            3                       # Number of memory responses ignored because the instruction is squashed
system.cpu0.iew.lsq.thread0.memOrderViolation           36                       # Number of memory ordering violations
system.cpu0.iew.lsq.thread0.squashedStores         1872                       # Number of stores squashed
system.cpu0.iew.lsq.thread0.invAddrSwpfs            0                       # Number of software prefetches ignored due to an invalid address
system.cpu0.iew.lsq.thread0.blockedLoads            0                       # Number of blocked loads due to partial load-store forwarding
system.cpu0.iew.lsq.thread0.rescheduledLoads           35                       # Number of loads that were rescheduled
system.cpu0.iew.lsq.thread0.cacheBlocked       557014                       # Number of times an access to memory failed due to the cache being blocked
system.cpu0.iew.iewIdleCycles                       0                       # Number of cycles IEW is idle
system.cpu0.iew.iewSquashCycles                  9197                       # Number of cycles IEW is squashing
system.cpu0.iew.iewBlockCycles                  35644                       # Number of cycles IEW is blocking
system.cpu0.iew.iewUnblockCycles                  646                       # Number of cycles IEW is unblocking
system.cpu0.iew.iewDispatchedInsts           16466774                       # Number of instructions dispatched to IQ
system.cpu0.iew.iewDispSquashedInsts             1122                       # Number of squashed instructions skipped by dispatch
system.cpu0.iew.iewDispLoadInsts              4310279                       # Number of dispatched load instructions
system.cpu0.iew.iewDispStoreInsts               95925                       # Number of dispatched store instructions
system.cpu0.iew.iewDispNonSpecInsts               124                       # Number of dispatched non-speculative instructions
system.cpu0.iew.iewIQFullEvents                    91                       # Number of times the IQ has become full, causing a stall
system.cpu0.iew.iewLSQFullEvents                   86                       # Number of times the LSQ has become full, causing a stall
system.cpu0.iew.memOrderViolationEvents            36                       # Number of memory order violations
system.cpu0.iew.predictedTakenIncorrect          8637                       # Number of branches that were predicted taken incorrectly
system.cpu0.iew.predictedNotTakenIncorrect          548                       # Number of branches that were predicted not taken incorrectly
system.cpu0.iew.branchMispredicts                9185                       # Number of branch mispredicts detected at execute
system.cpu0.iew.iewExecutedInsts             16764011                       # Number of executed instructions
system.cpu0.iew.iewExecLoadInsts              4792219                       # Number of load instructions executed
system.cpu0.iew.iewExecSquashedInsts             6394                       # Number of squashed instructions skipped in execute
system.cpu0.iew.exec_swp                            0                       # number of swp insts executed
system.cpu0.iew.exec_nop                            7                       # number of nop insts executed
system.cpu0.iew.exec_refs                     4886507                       # number of memory reference insts executed
system.cpu0.iew.exec_branches                 1094248                       # Number of branches executed
system.cpu0.iew.exec_stores                     94288                       # Number of stores executed
system.cpu0.iew.exec_rate                    1.930855                       # Inst execution rate
system.cpu0.iew.wb_sent                      16204657                       # cumulative count of insts sent to commit
system.cpu0.iew.wb_count                     16203796                       # cumulative count of insts written-back
system.cpu0.iew.wb_producers                 14986514                       # num instructions producing a value
system.cpu0.iew.wb_consumers                 24790131                       # num instructions consuming a value
system.cpu0.iew.wb_penalized                        0                       # number of instrctions required to write to 'other' IQ
system.cpu0.iew.wb_rate                      1.866330                       # insts written-back per cycle
system.cpu0.iew.wb_fanout                    0.604535                       # average fanout of values written-back
system.cpu0.iew.wb_penalized_rate                   0                       # fraction of instructions written-back that wrote to 'other' IQ
system.cpu0.commit.commitSquashedInsts         279785                       # The number of squashed insts skipped by commit
system.cpu0.commit.commitNonSpecStalls            190                       # The number of times commit has been forced to stall to communicate backwards
system.cpu0.commit.branchMispredicts             9149                       # The number of times a branch was mispredicted
system.cpu0.commit.committed_per_cycle::samples      8600860                       # Number of insts commited each cycle
system.cpu0.commit.committed_per_cycle::mean     1.882020                       # Number of insts commited each cycle
system.cpu0.commit.committed_per_cycle::stdev     2.478537                       # Number of insts commited each cycle
system.cpu0.commit.committed_per_cycle::underflows            0      0.00%      0.00% # Number of insts commited each cycle
system.cpu0.commit.committed_per_cycle::0      3160685     36.75%     36.75% # Number of insts commited each cycle
system.cpu0.commit.committed_per_cycle::1      2269510     26.39%     63.14% # Number of insts commited each cycle
system.cpu0.commit.committed_per_cycle::2      1031368     11.99%     75.13% # Number of insts commited each cycle
system.cpu0.commit.committed_per_cycle::3       871711     10.14%     85.26% # Number of insts commited each cycle
system.cpu0.commit.committed_per_cycle::4         8314      0.10%     85.36% # Number of insts commited each cycle
system.cpu0.commit.committed_per_cycle::5       210681      2.45%     87.81% # Number of insts commited each cycle
system.cpu0.commit.committed_per_cycle::6        43481      0.51%     88.31% # Number of insts commited each cycle
system.cpu0.commit.committed_per_cycle::7       148814      1.73%     90.04% # Number of insts commited each cycle
system.cpu0.commit.committed_per_cycle::8       856296      9.96%    100.00% # Number of insts commited each cycle
system.cpu0.commit.committed_per_cycle::overflows            0      0.00%    100.00% # Number of insts commited each cycle
system.cpu0.commit.committed_per_cycle::min_value            0                       # Number of insts commited each cycle
system.cpu0.commit.committed_per_cycle::max_value            8                       # Number of insts commited each cycle
system.cpu0.commit.committed_per_cycle::total      8600860                       # Number of insts commited each cycle
system.cpu0.commit.committedInsts            16174992                       # Number of instructions committed
system.cpu0.commit.committedOps              16186992                       # Number of ops (including micro ops) committed
system.cpu0.commit.swp_count                        0                       # Number of s/w prefetches committed
system.cpu0.commit.refs                       4324725                       # Number of memory references committed
system.cpu0.commit.loads                      4230672                       # Number of loads committed
system.cpu0.commit.membars                        114                       # Number of memory barriers committed
system.cpu0.commit.branches                   1093584                       # Number of branches committed
system.cpu0.commit.fp_insts                        28                       # Number of committed floating point instructions.
system.cpu0.commit.int_insts                 15093912                       # Number of committed integer instructions.
system.cpu0.commit.function_calls                 291                       # Number of function calls committed.
system.cpu0.commit.op_class_0::No_OpClass            0      0.00%      0.00% # Class of committed instruction
system.cpu0.commit.op_class_0::IntAlu         8683742     53.65%     53.65% # Class of committed instruction
system.cpu0.commit.op_class_0::IntMult        3178522     19.64%     73.28% # Class of committed instruction
system.cpu0.commit.op_class_0::IntDiv               0      0.00%     73.28% # Class of committed instruction
system.cpu0.commit.op_class_0::FloatAdd             0      0.00%     73.28% # Class of committed instruction
system.cpu0.commit.op_class_0::FloatCmp             0      0.00%     73.28% # Class of committed instruction
system.cpu0.commit.op_class_0::FloatCvt             0      0.00%     73.28% # Class of committed instruction
system.cpu0.commit.op_class_0::FloatMult            0      0.00%     73.28% # Class of committed instruction
system.cpu0.commit.op_class_0::FloatDiv             0      0.00%     73.28% # Class of committed instruction
system.cpu0.commit.op_class_0::FloatSqrt            0      0.00%     73.28% # Class of committed instruction
system.cpu0.commit.op_class_0::SimdAdd              0      0.00%     73.28% # Class of committed instruction
system.cpu0.commit.op_class_0::SimdAddAcc            0      0.00%     73.28% # Class of committed instruction
system.cpu0.commit.op_class_0::SimdAlu              0      0.00%     73.28% # Class of committed instruction
system.cpu0.commit.op_class_0::SimdCmp              0      0.00%     73.28% # Class of committed instruction
system.cpu0.commit.op_class_0::SimdCvt              0      0.00%     73.28% # Class of committed instruction
system.cpu0.commit.op_class_0::SimdMisc             0      0.00%     73.28% # Class of committed instruction
system.cpu0.commit.op_class_0::SimdMult             0      0.00%     73.28% # Class of committed instruction
system.cpu0.commit.op_class_0::SimdMultAcc            0      0.00%     73.28% # Class of committed instruction
system.cpu0.commit.op_class_0::SimdShift            0      0.00%     73.28% # Class of committed instruction
system.cpu0.commit.op_class_0::SimdShiftAcc            0      0.00%     73.28% # Class of committed instruction
system.cpu0.commit.op_class_0::SimdSqrt             0      0.00%     73.28% # Class of committed instruction
system.cpu0.commit.op_class_0::SimdFloatAdd            0      0.00%     73.28% # Class of committed instruction
system.cpu0.commit.op_class_0::SimdFloatAlu            0      0.00%     73.28% # Class of committed instruction
system.cpu0.commit.op_class_0::SimdFloatCmp            0      0.00%     73.28% # Class of committed instruction
system.cpu0.commit.op_class_0::SimdFloatCvt            0      0.00%     73.28% # Class of committed instruction
system.cpu0.commit.op_class_0::SimdFloatDiv            0      0.00%     73.28% # Class of committed instruction
system.cpu0.commit.op_class_0::SimdFloatMisc            3      0.00%     73.28% # Class of committed instruction
system.cpu0.commit.op_class_0::SimdFloatMult            0      0.00%     73.28% # Class of committed instruction
system.cpu0.commit.op_class_0::SimdFloatMultAcc            0      0.00%     73.28% # Class of committed instruction
system.cpu0.commit.op_class_0::SimdFloatSqrt            0      0.00%     73.28% # Class of committed instruction
system.cpu0.commit.op_class_0::MemRead        4230672     26.14%     99.42% # Class of committed instruction
system.cpu0.commit.op_class_0::MemWrite         94053      0.58%    100.00% # Class of committed instruction
system.cpu0.commit.op_class_0::IprAccess            0      0.00%    100.00% # Class of committed instruction
system.cpu0.commit.op_class_0::InstPrefetch            0      0.00%    100.00% # Class of committed instruction
system.cpu0.commit.op_class_0::total         16186992                       # Class of committed instruction
system.cpu0.commit.bw_lim_events               856296                       # number cycles where commit BW limit reached
system.cpu0.rob.rob_reads                    24211080                       # The number of ROB reads
system.cpu0.rob.rob_writes                   32972870                       # The number of ROB writes
system.cpu0.timesIdled                            419                       # Number of times that the entire CPU went into an idle state and unscheduled itself
system.cpu0.idleCycles                          42005                       # Total number of cycles that the CPU has spent unscheduled due to idling
system.cpu0.committedInsts                   16174992                       # Number of Instructions Simulated
system.cpu0.committedOps                     16186992                       # Number of Ops (including micro ops) Simulated
system.cpu0.cpi                              0.536765                       # CPI: Cycles Per Instruction
system.cpu0.cpi_total                        0.536765                       # CPI: Total CPI of All Threads
system.cpu0.ipc                              1.863012                       # IPC: Instructions Per Cycle
system.cpu0.ipc_total                        1.863012                       # IPC: Total IPC of All Threads
system.cpu0.int_regfile_reads                27552234                       # number of integer regfile reads
system.cpu0.int_regfile_writes               14971904                       # number of integer regfile writes
system.cpu0.fp_regfile_reads                      182                       # number of floating regfile reads
system.cpu0.fp_regfile_writes                       6                       # number of floating regfile writes
system.cpu0.cc_regfile_reads                 62990537                       # number of cc regfile reads
system.cpu0.cc_regfile_writes                 6429856                       # number of cc regfile writes
system.cpu0.misc_regfile_reads                4336939                       # number of misc regfile reads
system.cpu0.misc_regfile_writes                   114                       # number of misc regfile writes
system.cpu0.dcache.tags.replacements          1073568                       # number of replacements
system.cpu0.dcache.tags.tagsinuse         1014.207339                       # Cycle average of tags in use
system.cpu0.dcache.tags.total_refs            2106083                       # Total number of references to valid blocks.
system.cpu0.dcache.tags.sampled_refs          1074591                       # Sample count of references to valid blocks.
[...]
system.l2.avg_blocked_cycles::no_mshrs            nan                       # average number of cycles each access was blocked
system.l2.avg_blocked_cycles::no_targets          nan                       # average number of cycles each access was blocked
system.l2.fast_writes                               0                       # number of fast writes performed
system.l2.cache_copies                              0                       # number of cache copies performed
system.l2.ReadReq_mshr_hits::cpu0.inst              3                       # number of ReadReq MSHR hits
system.l2.ReadReq_mshr_hits::cpu0.data             20                       # number of ReadReq MSHR hits
system.l2.ReadReq_mshr_hits::cpu1.inst              7                       # number of ReadReq MSHR hits
system.l2.ReadReq_mshr_hits::cpu1.data              5                       # number of ReadReq MSHR hits
system.l2.ReadReq_mshr_hits::total                 35                       # number of ReadReq MSHR hits
system.l2.demand_mshr_hits::cpu0.inst               3                       # number of demand (read+write) MSHR hits
system.l2.demand_mshr_hits::cpu0.data              20                       # number of demand (read+write) MSHR hits
system.l2.demand_mshr_hits::cpu1.inst               7                       # number of demand (read+write) MSHR hits
system.l2.demand_mshr_hits::cpu1.data               5                       # number of demand (read+write) MSHR hits
system.l2.demand_mshr_hits::total                  35                       # number of demand (read+write) MSHR hits
system.l2.overall_mshr_hits::cpu0.inst              3                       # number of overall MSHR hits
system.l2.overall_mshr_hits::cpu0.data             20                       # number of overall MSHR hits
system.l2.overall_mshr_hits::cpu1.inst              7                       # number of overall MSHR hits
system.l2.overall_mshr_hits::cpu1.data              5                       # number of overall MSHR hits
system.l2.overall_mshr_hits::total                 35                       # number of overall MSHR hits
system.l2.ReadReq_mshr_misses::cpu0.inst          525                       # number of ReadReq MSHR misses
system.l2.ReadReq_mshr_misses::cpu0.data          119                       # number of ReadReq MSHR misses
system.l2.ReadReq_mshr_misses::cpu1.inst           17                       # number of ReadReq MSHR misses
system.l2.ReadReq_mshr_misses::cpu1.data            9                       # number of ReadReq MSHR misses
system.l2.ReadReq_mshr_misses::total              670                       # number of ReadReq MSHR misses
system.l2.UpgradeReq_mshr_misses::cpu0.data            3                       # number of UpgradeReq MSHR misses
system.l2.UpgradeReq_mshr_misses::cpu1.data            1                       # number of UpgradeReq MSHR misses
system.l2.UpgradeReq_mshr_misses::total             4                       # number of UpgradeReq MSHR misses
system.l2.ReadExReq_mshr_misses::cpu0.data         5254                       # number of ReadExReq MSHR misses
system.l2.ReadExReq_mshr_misses::cpu1.data         1029                       # number of ReadExReq MSHR misses
system.l2.ReadExReq_mshr_misses::total           6283                       # number of ReadExReq MSHR misses
system.l2.demand_mshr_misses::cpu0.inst           525                       # number of demand (read+write) MSHR misses
system.l2.demand_mshr_misses::cpu0.data          5373                       # number of demand (read+write) MSHR misses
system.l2.demand_mshr_misses::cpu1.inst            17                       # number of demand (read+write) MSHR misses
system.l2.demand_mshr_misses::cpu1.data          1038                       # number of demand (read+write) MSHR misses
system.l2.demand_mshr_misses::total              6953                       # number of demand (read+write) MSHR misses
system.l2.overall_mshr_misses::cpu0.inst          525                       # number of overall MSHR misses
system.l2.overall_mshr_misses::cpu0.data         5373                       # number of overall MSHR misses
system.l2.overall_mshr_misses::cpu1.inst           17                       # number of overall MSHR misses
system.l2.overall_mshr_misses::cpu1.data         1038                       # number of overall MSHR misses
system.l2.overall_mshr_misses::total             6953                       # number of overall MSHR misses
system.l2.ReadReq_mshr_miss_latency::cpu0.inst     33720250                       # number of ReadReq MSHR miss cycles
system.l2.ReadReq_mshr_miss_latency::cpu0.data      8051250                       # number of ReadReq MSHR miss cycles
system.l2.ReadReq_mshr_miss_latency::cpu1.inst      1073000                       # number of ReadReq MSHR miss cycles
system.l2.ReadReq_mshr_miss_latency::cpu1.data       593750                       # number of ReadReq MSHR miss cycles
system.l2.ReadReq_mshr_miss_latency::total     43438250                       # number of ReadReq MSHR miss cycles
system.l2.UpgradeReq_mshr_miss_latency::cpu0.data        53503                       # number of UpgradeReq MSHR miss cycles
system.l2.UpgradeReq_mshr_miss_latency::cpu1.data        18001                       # number of UpgradeReq MSHR miss cycles
system.l2.UpgradeReq_mshr_miss_latency::total        71504                       # number of UpgradeReq MSHR miss cycles
system.l2.ReadExReq_mshr_miss_latency::cpu0.data    323201751                       # number of ReadExReq MSHR miss cycles
system.l2.ReadExReq_mshr_miss_latency::cpu1.data     70198500                       # number of ReadExReq MSHR miss cycles
system.l2.ReadExReq_mshr_miss_latency::total    393400251                       # number of ReadExReq MSHR miss cycles
system.l2.demand_mshr_miss_latency::cpu0.inst     33720250                       # number of demand (read+write) MSHR miss cycles
system.l2.demand_mshr_miss_latency::cpu0.data    331253001                       # number of demand (read+write) MSHR miss cycles
system.l2.demand_mshr_miss_latency::cpu1.inst      1073000                       # number of demand (read+write) MSHR miss cycles
system.l2.demand_mshr_miss_latency::cpu1.data     70792250                       # number of demand (read+write) MSHR miss cycles
system.l2.demand_mshr_miss_latency::total    436838501                       # number of demand (read+write) MSHR miss cycles
system.l2.overall_mshr_miss_latency::cpu0.inst     33720250                       # number of overall MSHR miss cycles
system.l2.overall_mshr_miss_latency::cpu0.data    331253001                       # number of overall MSHR miss cycles
system.l2.overall_mshr_miss_latency::cpu1.inst      1073000                       # number of overall MSHR miss cycles
system.l2.overall_mshr_miss_latency::cpu1.data     70792250                       # number of overall MSHR miss cycles
system.l2.overall_mshr_miss_latency::total    436838501                       # number of overall MSHR miss cycles
system.l2.ReadReq_mshr_miss_rate::cpu0.inst     0.832013                       # mshr miss rate for ReadReq accesses
system.l2.ReadReq_mshr_miss_rate::cpu0.data     0.000159                       # mshr miss rate for ReadReq accesses
system.l2.ReadReq_mshr_miss_rate::cpu1.inst     0.333333                       # mshr miss rate for ReadReq accesses
system.l2.ReadReq_mshr_miss_rate::cpu1.data     0.000022                       # mshr miss rate for ReadReq accesses
system.l2.ReadReq_mshr_miss_rate::total      0.000576                       # mshr miss rate for ReadReq accesses
system.l2.UpgradeReq_mshr_miss_rate::cpu0.data     0.750000                       # mshr miss rate for UpgradeReq accesses
system.l2.UpgradeReq_mshr_miss_rate::cpu1.data            1                       # mshr miss rate for UpgradeReq accesses
system.l2.UpgradeReq_mshr_miss_rate::total     0.800000                       # mshr miss rate for UpgradeReq accesses
system.l2.ReadExReq_mshr_miss_rate::cpu0.data     0.422449                       # mshr miss rate for ReadExReq accesses
system.l2.ReadExReq_mshr_miss_rate::cpu1.data     0.125580                       # mshr miss rate for ReadExReq accesses
system.l2.ReadExReq_mshr_miss_rate::total     0.304542                       # mshr miss rate for ReadExReq accesses
system.l2.demand_mshr_miss_rate::cpu0.inst     0.832013                       # mshr miss rate for demand accesses
system.l2.demand_mshr_miss_rate::cpu0.data     0.007071                       # mshr miss rate for demand accesses
system.l2.demand_mshr_miss_rate::cpu1.inst     0.333333                       # mshr miss rate for demand accesses
system.l2.demand_mshr_miss_rate::cpu1.data     0.002456                       # mshr miss rate for demand accesses
system.l2.demand_mshr_miss_rate::total       0.005877                       # mshr miss rate for demand accesses
system.l2.overall_mshr_miss_rate::cpu0.inst     0.832013                       # mshr miss rate for overall accesses
system.l2.overall_mshr_miss_rate::cpu0.data     0.007071                       # mshr miss rate for overall accesses
system.l2.overall_mshr_miss_rate::cpu1.inst     0.333333                       # mshr miss rate for overall accesses
system.l2.overall_mshr_miss_rate::cpu1.data     0.002456                       # mshr miss rate for overall accesses
system.l2.overall_mshr_miss_rate::total      0.005877                       # mshr miss rate for overall accesses
system.l2.ReadReq_avg_mshr_miss_latency::cpu0.inst 64229.047619                       # average ReadReq mshr miss latency
system.l2.ReadReq_avg_mshr_miss_latency::cpu0.data 67657.563025                       # average ReadReq mshr miss latency
system.l2.ReadReq_avg_mshr_miss_latency::cpu1.inst 63117.647059                       # average ReadReq mshr miss latency
system.l2.ReadReq_avg_mshr_miss_latency::cpu1.data 65972.222222                       # average ReadReq mshr miss latency
system.l2.ReadReq_avg_mshr_miss_latency::total 64833.208955                       # average ReadReq mshr miss latency
system.l2.UpgradeReq_avg_mshr_miss_latency::cpu0.data 17834.333333                       # average UpgradeReq mshr miss latency
system.l2.UpgradeReq_avg_mshr_miss_latency::cpu1.data        18001                       # average UpgradeReq mshr miss latency
system.l2.UpgradeReq_avg_mshr_miss_latency::total        17876                       # average UpgradeReq mshr miss latency
system.l2.ReadExReq_avg_mshr_miss_latency::cpu0.data 61515.369433                       # average ReadExReq mshr miss latency
system.l2.ReadExReq_avg_mshr_miss_latency::cpu1.data 68220.116618                       # average ReadExReq mshr miss latency
system.l2.ReadExReq_avg_mshr_miss_latency::total 62613.441191                       # average ReadExReq mshr miss latency
system.l2.demand_avg_mshr_miss_latency::cpu0.inst 64229.047619                       # average overall mshr miss latency
system.l2.demand_avg_mshr_miss_latency::cpu0.data 61651.405360                       # average overall mshr miss latency
system.l2.demand_avg_mshr_miss_latency::cpu1.inst 63117.647059                       # average overall mshr miss latency
system.l2.demand_avg_mshr_miss_latency::cpu1.data 68200.626204                       # average overall mshr miss latency
system.l2.demand_avg_mshr_miss_latency::total 62827.340860                       # average overall mshr miss latency
system.l2.overall_avg_mshr_miss_latency::cpu0.inst 64229.047619                       # average overall mshr miss latency
system.l2.overall_avg_mshr_miss_latency::cpu0.data 61651.405360                       # average overall mshr miss latency
system.l2.overall_avg_mshr_miss_latency::cpu1.inst 63117.647059                       # average overall mshr miss latency
system.l2.overall_avg_mshr_miss_latency::cpu1.data 68200.626204                       # average overall mshr miss latency
system.l2.overall_avg_mshr_miss_latency::total 62827.340860                       # average overall mshr miss latency
system.l2.no_allocate_misses                        0                       # Number of misses that were no-allocate
system.membus.trans_dist::ReadReq                 669                       # Transaction distribution
system.membus.trans_dist::ReadResp                668                       # Transaction distribution
system.membus.trans_dist::UpgradeReq                7                       # Transaction distribution
system.membus.trans_dist::SCUpgradeReq              2                       # Transaction distribution
system.membus.trans_dist::UpgradeResp               5                       # Transaction distribution
system.membus.trans_dist::ReadExReq              6282                       # Transaction distribution
system.membus.trans_dist::ReadExResp             6282                       # Transaction distribution
system.membus.pkt_count_system.l2.mem_side::system.mem_ctrls.port        13915                       # Packet count per connected master and slave (bytes)
system.membus.pkt_count::total                  13915                       # Packet count per connected master and slave (bytes)
system.membus.pkt_size_system.l2.mem_side::system.mem_ctrls.port       444800                       # Cumulative packet size per connected master and slave (bytes)
system.membus.pkt_size::total                  444800                       # Cumulative packet size per connected master and slave (bytes)
system.membus.snoops                                4                       # Total snoops (count)
system.membus.snoop_fanout::samples              6960                       # Request fanout histogram
system.membus.snoop_fanout::mean                    0                       # Request fanout histogram
system.membus.snoop_fanout::stdev                   0                       # Request fanout histogram
system.membus.snoop_fanout::underflows              0      0.00%      0.00% # Request fanout histogram
system.membus.snoop_fanout::0                    6960    100.00%    100.00% # Request fanout histogram
system.membus.snoop_fanout::1                       0      0.00%    100.00% # Request fanout histogram
system.membus.snoop_fanout::overflows               0      0.00%    100.00% # Request fanout histogram
system.membus.snoop_fanout::min_value               0                       # Request fanout histogram
system.membus.snoop_fanout::max_value               0                       # Request fanout histogram
system.membus.snoop_fanout::total                6960                       # Request fanout histogram
system.membus.reqLayer0.occupancy             7886000                       # Layer occupancy (ticks)
system.membus.reqLayer0.utilization               0.2                       # Layer utilization (%)
system.membus.respLayer1.occupancy           36862495                       # Layer occupancy (ticks)
system.membus.respLayer1.utilization              0.8                       # Layer utilization (%)
system.tol2bus.trans_dist::ReadReq            2124215                       # Transaction distribution
system.tol2bus.trans_dist::ReadResp           2124213                       # Transaction distribution
system.tol2bus.trans_dist::Writeback          1096741                       # Transaction distribution
system.tol2bus.trans_dist::UpgradeReq               7                       # Transaction distribution
system.tol2bus.trans_dist::SCUpgradeReq             2                       # Transaction distribution
system.tol2bus.trans_dist::UpgradeResp              9                       # Transaction distribution
system.tol2bus.trans_dist::ReadExReq            20633                       # Transaction distribution
system.tol2bus.trans_dist::ReadExResp           20633                       # Transaction distribution
system.tol2bus.pkt_count_system.cpu0.icache.mem_side::system.l2.cpu_side         1260                       # Packet count per connected master and slave (bytes)
system.tol2bus.pkt_count_system.cpu0.dcache.mem_side::system.l2.cpu_side      2530033                       # Packet count per connected master and slave (bytes)
system.tol2bus.pkt_count_system.cpu1.icache.mem_side::system.l2.cpu_side          102                       # Packet count per connected master and slave (bytes)
system.tol2bus.pkt_count_system.cpu1.dcache.mem_side::system.l2.cpu_side      1893271                       # Packet count per connected master and slave (bytes)
system.tol2bus.pkt_count::total               4424666                       # Packet count per connected master and slave (bytes)
system.tol2bus.pkt_size_system.cpu0.icache.mem_side::system.l2.cpu_side        40256                       # Cumulative packet size per connected master and slave (bytes)
system.tol2bus.pkt_size_system.cpu0.dcache.mem_side::system.l2.cpu_side     93147328                       # Cumulative packet size per connected master and slave (bytes)
system.tol2bus.pkt_size_system.cpu1.icache.mem_side::system.l2.cpu_side         3264                       # Cumulative packet size per connected master and slave (bytes)
system.tol2bus.pkt_size_system.cpu1.dcache.mem_side::system.l2.cpu_side     52716608                       # Cumulative packet size per connected master and slave (bytes)
system.tol2bus.pkt_size::total              145907456                       # Cumulative packet size per connected master and slave (bytes)
system.tol2bus.snoops                          961787                       # Total snoops (count)
system.tol2bus.snoop_fanout::samples          3241598                       # Request fanout histogram
system.tol2bus.snoop_fanout::mean                   3                       # Request fanout histogram
system.tol2bus.snoop_fanout::stdev                  0                       # Request fanout histogram
system.tol2bus.snoop_fanout::underflows             0      0.00%      0.00% # Request fanout histogram
system.tol2bus.snoop_fanout::0                      0      0.00%      0.00% # Request fanout histogram
system.tol2bus.snoop_fanout::1                      0      0.00%      0.00% # Request fanout histogram
system.tol2bus.snoop_fanout::2                      0      0.00%      0.00% # Request fanout histogram
system.tol2bus.snoop_fanout::3                3241598    100.00%    100.00% # Request fanout histogram
system.tol2bus.snoop_fanout::4                      0      0.00%    100.00% # Request fanout histogram
system.tol2bus.snoop_fanout::overflows              0      0.00%    100.00% # Request fanout histogram
system.tol2bus.snoop_fanout::min_value              3                       # Request fanout histogram
system.tol2bus.snoop_fanout::max_value              3                       # Request fanout histogram
system.tol2bus.snoop_fanout::total            3241598                       # Request fanout histogram
system.tol2bus.reqLayer0.occupancy         2717540998                       # Layer occupancy (ticks)
system.tol2bus.reqLayer0.utilization             62.6                       # Layer utilization (%)
system.tol2bus.respLayer0.occupancy           1044996                       # Layer occupancy (ticks)
system.tol2bus.respLayer0.utilization             0.0                       # Layer utilization (%)
system.tol2bus.respLayer1.occupancy        1614524383                       # Layer occupancy (ticks)
system.tol2bus.respLayer1.utilization            37.2                       # Layer utilization (%)
system.tol2bus.respLayer4.occupancy             81992                       # Layer occupancy (ticks)
system.tol2bus.respLayer4.utilization             0.0                       # Layer utilization (%)
system.tol2bus.respLayer5.occupancy        1606630583                       # Layer occupancy (ticks)
system.tol2bus.respLayer5.utilization            37.0                       # Layer utilization (%)

---------- End Simulation Statistics   ----------
