
---------- Begin Simulation Statistics ----------
sim_seconds                                  0.002085                       # Number of seconds simulated
sim_ticks                                  2085299500                       # Number of ticks simulated
final_tick                                 2085299500                       # Number of ticks from beginning of simulation (restored from checkpoints and never reset)
sim_freq                                 1000000000000                       # Frequency of simulated ticks
host_inst_rate                                 167690                       # Simulator instruction rate (inst/s)
host_op_rate                                   167810                       # Simulator op (including micro ops) rate (op/s)
host_tick_rate                               10903080                       # Simulator tick rate (ticks/s)
host_mem_usage                                 665892                       # Number of bytes of host memory used
host_seconds                                   191.26                       # Real time elapsed on the host
sim_insts                                    32071999                       # Number of instructions simulated
sim_ops                                      32094892                       # Number of ops (including micro ops) simulated
system.voltage_domain.voltage                       1                       # Voltage in Volts
system.clk_domain.clock                          1000                       # Clock period in ticks
system.mem_ctrls.bytes_read::cpu0.inst          32960                       # Number of bytes read from this memory
system.mem_ctrls.bytes_read::cpu0.data         312192                       # Number of bytes read from this memory
system.mem_ctrls.bytes_read::cpu1.inst            896                       # Number of bytes read from this memory
system.mem_ctrls.bytes_read::cpu1.data          33600                       # Number of bytes read from this memory
system.mem_ctrls.bytes_read::cpu2.inst            320                       # Number of bytes read from this memory
system.mem_ctrls.bytes_read::cpu2.data          33216                       # Number of bytes read from this memory
system.mem_ctrls.bytes_read::cpu3.inst            256                       # Number of bytes read from this memory
system.mem_ctrls.bytes_read::cpu3.data          33344                       # Number of bytes read from this memory
system.mem_ctrls.bytes_read::total             446784                       # Number of bytes read from this memory
system.mem_ctrls.bytes_inst_read::cpu0.inst        32960                       # Number of instructions bytes read from this memory
system.mem_ctrls.bytes_inst_read::cpu1.inst          896                       # Number of instructions bytes read from this memory
system.mem_ctrls.bytes_inst_read::cpu2.inst          320                       # Number of instructions bytes read from this memory
system.mem_ctrls.bytes_inst_read::cpu3.inst          256                       # Number of instructions bytes read from this memory
system.mem_ctrls.bytes_inst_read::total         34432                       # Number of instructions bytes read from this memory
system.mem_ctrls.num_reads::cpu0.inst             515                       # Number of read requests responded to by this memory
system.mem_ctrls.num_reads::cpu0.data            4878                       # Number of read requests responded to by this memory
system.mem_ctrls.num_reads::cpu1.inst              14                       # Number of read requests responded to by this memory
system.mem_ctrls.num_reads::cpu1.data             525                       # Number of read requests responded to by this memory
system.mem_ctrls.num_reads::cpu2.inst               5                       # Number of read requests responded to by this memory
system.mem_ctrls.num_reads::cpu2.data             519                       # Number of read requests responded to by this memory
system.mem_ctrls.num_reads::cpu3.inst               4                       # Number of read requests responded to by this memory
system.mem_ctrls.num_reads::cpu3.data             521                       # Number of read requests responded to by this memory
system.mem_ctrls.num_reads::total                6981                       # Number of read requests responded to by this memory
system.mem_ctrls.bw_read::cpu0.inst          15805883                       # Total read bandwidth from this memory (bytes/s)
system.mem_ctrls.bw_read::cpu0.data         149710869                       # Total read bandwidth from this memory (bytes/s)
system.mem_ctrls.bw_read::cpu1.inst            429674                       # Total read bandwidth from this memory (bytes/s)
system.mem_ctrls.bw_read::cpu1.data          16112793                       # Total read bandwidth from this memory (bytes/s)
system.mem_ctrls.bw_read::cpu2.inst            153455                       # Total read bandwidth from this memory (bytes/s)
system.mem_ctrls.bw_read::cpu2.data          15928647                       # Total read bandwidth from this memory (bytes/s)
system.mem_ctrls.bw_read::cpu3.inst            122764                       # Total read bandwidth from this memory (bytes/s)
system.mem_ctrls.bw_read::cpu3.data          15990029                       # Total read bandwidth from this memory (bytes/s)
system.mem_ctrls.bw_read::total             214254116                       # Total read bandwidth from this memory (bytes/s)
system.mem_ctrls.bw_inst_read::cpu0.inst     15805883                       # Instruction read bandwidth from this memory (bytes/s)
system.mem_ctrls.bw_inst_read::cpu1.inst       429674                       # Instruction read bandwidth from this memory (bytes/s)
system.mem_ctrls.bw_inst_read::cpu2.inst       153455                       # Instruction read bandwidth from this memory (bytes/s)
system.mem_ctrls.bw_inst_read::cpu3.inst       122764                       # Instruction read bandwidth from this memory (bytes/s)
system.mem_ctrls.bw_inst_read::total         16511777                       # Instruction read bandwidth from this memory (bytes/s)
system.mem_ctrls.bw_total::cpu0.inst         15805883                       # Total bandwidth to/from this memory (bytes/s)
system.mem_ctrls.bw_total::cpu0.data        149710869                       # Total bandwidth to/from this memory (bytes/s)
system.mem_ctrls.bw_total::cpu1.inst           429674                       # Total bandwidth to/from this memory (bytes/s)
system.mem_ctrls.bw_total::cpu1.data         16112793                       # Total bandwidth to/from this memory (bytes/s)
system.mem_ctrls.bw_total::cpu2.inst           153455                       # Total bandwidth to/from this memory (bytes/s)
system.mem_ctrls.bw_total::cpu2.data         15928647                       # Total bandwidth to/from this memory (bytes/s)
system.mem_ctrls.bw_total::cpu3.inst           122764                       # Total bandwidth to/from this memory (bytes/s)
system.mem_ctrls.bw_total::cpu3.data         15990029                       # Total bandwidth to/from this memory (bytes/s)
system.mem_ctrls.bw_total::total            214254116                       # Total bandwidth to/from this memory (bytes/s)
system.mem_ctrls.readReqs                        6981                       # Number of read requests accepted
system.mem_ctrls.writeReqs                          0                       # Number of write requests accepted
system.mem_ctrls.readBursts                      6981                       # Number of DRAM read bursts, including those serviced by the write queue
system.mem_ctrls.writeBursts                        0                       # Number of DRAM write bursts, including those merged in the write queue
system.mem_ctrls.bytesReadDRAM                 446784                       # Total number of bytes read from DRAM
system.mem_ctrls.bytesReadWrQ                       0                       # Total number of bytes read from write queue
system.mem_ctrls.bytesWritten                       0                       # Total number of bytes written to DRAM
system.mem_ctrls.bytesReadSys                  446784                       # Total read bytes from the system interface side
system.mem_ctrls.bytesWrittenSys                    0                       # Total written bytes from the system interface side
system.mem_ctrls.servicedByWrQ                      0                       # Number of DRAM read bursts serviced by the write queue
system.mem_ctrls.mergedWrBursts                     0                       # Number of DRAM write bursts merged with an existing one
system.mem_ctrls.neitherReadNorWriteReqs            4                       # Number of requests that are neither read nor write
system.mem_ctrls.perBankRdBursts::0               507                       # Per bank write bursts
system.mem_ctrls.perBankRdBursts::1               507                       # Per bank write bursts
system.mem_ctrls.perBankRdBursts::2               518                       # Per bank write bursts
system.mem_ctrls.perBankRdBursts::3               474                       # Per bank write bursts
system.mem_ctrls.perBankRdBursts::4               434                       # Per bank write bursts
system.mem_ctrls.perBankRdBursts::5               421                       # Per bank write bursts
system.mem_ctrls.perBankRdBursts::6               465                       # Per bank write bursts
system.mem_ctrls.perBankRdBursts::7               415                       # Per bank write bursts
system.mem_ctrls.perBankRdBursts::8               399                       # Per bank write bursts
system.mem_ctrls.perBankRdBursts::9               394                       # Per bank write bursts
system.mem_ctrls.perBankRdBursts::10              384                       # Per bank write bursts
system.mem_ctrls.perBankRdBursts::11              396                       # Per bank write bursts
system.mem_ctrls.perBankRdBursts::12              390                       # Per bank write bursts
system.mem_ctrls.perBankRdBursts::13              417                       # Per bank write bursts
system.mem_ctrls.perBankRdBursts::14              422                       # Per bank write bursts
system.mem_ctrls.perBankRdBursts::15              438                       # Per bank write bursts
system.mem_ctrls.perBankWrBursts::0                 0                       # Per bank write bursts
system.mem_ctrls.perBankWrBursts::1                 0                       # Per bank write bursts
system.mem_ctrls.perBankWrBursts::2                 0                       # Per bank write bursts
system.mem_ctrls.perBankWrBursts::3                 0                       # Per bank write bursts
system.mem_ctrls.perBankWrBursts::4                 0                       # Per bank write bursts
system.mem_ctrls.perBankWrBursts::5                 0                       # Per bank write bursts
system.mem_ctrls.perBankWrBursts::6                 0                       # Per bank write bursts
system.mem_ctrls.perBankWrBursts::7                 0                       # Per bank write bursts
system.mem_ctrls.perBankWrBursts::8                 0                       # Per bank write bursts
system.mem_ctrls.perBankWrBursts::9                 0                       # Per bank write bursts
system.mem_ctrls.perBankWrBursts::10                0                       # Per bank write bursts
system.mem_ctrls.perBankWrBursts::11                0                       # Per bank write bursts
system.mem_ctrls.perBankWrBursts::12                0                       # Per bank write bursts
system.mem_ctrls.perBankWrBursts::13                0                       # Per bank write bursts
system.mem_ctrls.perBankWrBursts::14                0                       # Per bank write bursts
system.mem_ctrls.perBankWrBursts::15                0                       # Per bank write bursts
system.mem_ctrls.numRdRetry                         0                       # Number of times read queue was full causing retry
system.mem_ctrls.numWrRetry                         0                       # Number of times write queue was full causing retry
system.mem_ctrls.totGap                    2085260000                       # Total gap between requests
system.mem_ctrls.readPktSize::0                     0                       # Read request sizes (log2)
system.mem_ctrls.readPktSize::1                     0                       # Read request sizes (log2)
system.mem_ctrls.readPktSize::2                     0                       # Read request sizes (log2)
system.mem_ctrls.readPktSize::3                     0                       # Read request sizes (log2)
system.mem_ctrls.readPktSize::4                     0                       # Read request sizes (log2)
system.mem_ctrls.readPktSize::5                     0                       # Read request sizes (log2)
system.mem_ctrls.readPktSize::6                  6981                       # Read request sizes (log2)
system.mem_ctrls.writePktSize::0                    0                       # Write request sizes (log2)
system.mem_ctrls.writePktSize::1                    0                       # Write request sizes (log2)
system.mem_ctrls.writePktSize::2                    0                       # Write request sizes (log2)
system.mem_ctrls.writePktSize::3                    0                       # Write request sizes (log2)
system.mem_ctrls.writePktSize::4                    0                       # Write request sizes (log2)
system.mem_ctrls.writePktSize::5                    0                       # Write request sizes (log2)
system.mem_ctrls.writePktSize::6                    0                       # Write request sizes (log2)
system.mem_ctrls.rdQLenPdf::0                    3383                       # What read queue length does an incoming req see
system.mem_ctrls.rdQLenPdf::1                    2840                       # What read queue length does an incoming req see
system.mem_ctrls.rdQLenPdf::2                     561                       # What read queue length does an incoming req see
system.mem_ctrls.rdQLenPdf::3                     183                       # What read queue length does an incoming req see
system.mem_ctrls.rdQLenPdf::4                      11                       # What read queue length does an incoming req see
system.mem_ctrls.rdQLenPdf::5                       3                       # What read queue length does an incoming req see
system.mem_ctrls.rdQLenPdf::6                       0                       # What read queue length does an incoming req see
system.mem_ctrls.rdQLenPdf::7                       0                       # What read queue length does an incoming req see
system.mem_ctrls.rdQLenPdf::8                       0                       # What read queue length does an incoming req see
system.mem_ctrls.rdQLenPdf::9                       0                       # What read queue length does an incoming req see
system.mem_ctrls.rdQLenPdf::10                      0                       # What read queue length does an incoming req see
system.mem_ctrls.rdQLenPdf::11                      0                       # What read queue length does an incoming req see
system.mem_ctrls.rdQLenPdf::12                      0                       # What read queue length does an incoming req see
system.mem_ctrls.rdQLenPdf::13                      0                       # What read queue length does an incoming req see
system.mem_ctrls.rdQLenPdf::14                      0                       # What read queue length does an incoming req see
system.mem_ctrls.rdQLenPdf::15                      0                       # What read queue length does an incoming req see
system.mem_ctrls.rdQLenPdf::16                      0                       # What read queue length does an incoming req see
system.mem_ctrls.rdQLenPdf::17                      0                       # What read queue length does an incoming req see
system.mem_ctrls.rdQLenPdf::18                      0                       # What read queue length does an incoming req see
system.mem_ctrls.rdQLenPdf::19                      0                       # What read queue length does an incoming req see
system.mem_ctrls.rdQLenPdf::20                      0                       # What read queue length does an incoming req see
system.mem_ctrls.rdQLenPdf::21                      0                       # What read queue length does an incoming req see
system.mem_ctrls.rdQLenPdf::22                      0                       # What read queue length does an incoming req see
system.mem_ctrls.rdQLenPdf::23                      0                       # What read queue length does an incoming req see
system.mem_ctrls.rdQLenPdf::24                      0                       # What read queue length does an incoming req see
system.mem_ctrls.rdQLenPdf::25                      0                       # What read queue length does an incoming req see
system.mem_ctrls.rdQLenPdf::26                      0                       # What read queue length does an incoming req see
system.mem_ctrls.rdQLenPdf::27                      0                       # What read queue length does an incoming req see
system.mem_ctrls.rdQLenPdf::28                      0                       # What read queue length does an incoming req see
system.mem_ctrls.rdQLenPdf::29                      0                       # What read queue length does an incoming req see
system.mem_ctrls.rdQLenPdf::30                      0                       # What read queue length does an incoming req see
system.mem_ctrls.rdQLenPdf::31                      0                       # What read queue length does an incoming req see
system.mem_ctrls.wrQLenPdf::0                       0                       # What write queue length does an incoming req see
system.mem_ctrls.wrQLenPdf::1                       0                       # What write queue length does an incoming req see
system.mem_ctrls.wrQLenPdf::2                       0                       # What write queue length does an incoming req see
system.mem_ctrls.wrQLenPdf::3                       0                       # What write queue length does an incoming req see
system.mem_ctrls.wrQLenPdf::4                       0                       # What write queue length does an incoming req see
system.mem_ctrls.wrQLenPdf::5                       0                       # What write queue length does an incoming req see
system.mem_ctrls.wrQLenPdf::6                       0                       # What write queue length does an incoming req see
system.mem_ctrls.wrQLenPdf::7                       0                       # What write queue length does an incoming req see
system.mem_ctrls.wrQLenPdf::8                       0                       # What write queue length does an incoming req see
system.mem_ctrls.wrQLenPdf::9                       0                       # What write queue length does an incoming req see
system.mem_ctrls.wrQLenPdf::10                      0                       # What write queue length does an incoming req see
system.mem_ctrls.wrQLenPdf::11                      0                       # What write queue length does an incoming req see
system.mem_ctrls.wrQLenPdf::12                      0                       # What write queue length does an incoming req see
system.mem_ctrls.wrQLenPdf::13                      0                       # What write queue length does an incoming req see
system.mem_ctrls.wrQLenPdf::14                      0                       # What write queue length does an incoming req see
system.mem_ctrls.wrQLenPdf::15                      0                       # What write queue length does an incoming req see
system.mem_ctrls.wrQLenPdf::16                      0                       # What write queue length does an incoming req see
system.mem_ctrls.wrQLenPdf::17                      0                       # What write queue length does an incoming req see
system.mem_ctrls.wrQLenPdf::18                      0                       # What write queue length does an incoming req see
system.mem_ctrls.wrQLenPdf::19                      0                       # What write queue length does an incoming req see
system.mem_ctrls.wrQLenPdf::20                      0                       # What write queue length does an incoming req see
system.mem_ctrls.wrQLenPdf::21                      0                       # What write queue length does an incoming req see
system.mem_ctrls.wrQLenPdf::22                      0                       # What write queue length does an incoming req see
system.mem_ctrls.wrQLenPdf::23                      0                       # What write queue length does an incoming req see
system.mem_ctrls.wrQLenPdf::24                      0                       # What write queue length does an incoming req see
system.mem_ctrls.wrQLenPdf::25                      0                       # What write queue length does an incoming req see
system.mem_ctrls.wrQLenPdf::26                      0                       # What write queue length does an incoming req see
system.mem_ctrls.wrQLenPdf::27                      0                       # What write queue length does an incoming req see
system.mem_ctrls.wrQLenPdf::28                      0                       # What write queue length does an incoming req see
system.mem_ctrls.wrQLenPdf::29                      0                       # What write queue length does an incoming req see
system.mem_ctrls.wrQLenPdf::30                      0                       # What write queue length does an incoming req see
system.mem_ctrls.wrQLenPdf::31                      0                       # What write queue length does an incoming req see
system.mem_ctrls.wrQLenPdf::32                      0                       # What write queue length does an incoming req see
system.mem_ctrls.wrQLenPdf::33                      0                       # What write queue length does an incoming req see
system.mem_ctrls.wrQLenPdf::34                      0                       # What write queue length does an incoming req see
system.mem_ctrls.wrQLenPdf::35                      0                       # What write queue length does an incoming req see
system.mem_ctrls.wrQLenPdf::36                      0                       # What write queue length does an incoming req see
system.mem_ctrls.wrQLenPdf::37                      0                       # What write queue length does an incoming req see
system.mem_ctrls.wrQLenPdf::38                      0                       # What write queue length does an incoming req see
system.mem_ctrls.wrQLenPdf::39                      0                       # What write queue length does an incoming req see
system.mem_ctrls.wrQLenPdf::40                      0                       # What write queue length does an incoming req see
system.mem_ctrls.wrQLenPdf::41                      0                       # What write queue length does an incoming req see
system.mem_ctrls.wrQLenPdf::42                      0                       # What write queue length does an incoming req see
system.mem_ctrls.wrQLenPdf::43                      0                       # What write queue length does an incoming req see
system.mem_ctrls.wrQLenPdf::44                      0                       # What write queue length does an incoming req see
system.mem_ctrls.wrQLenPdf::45                      0                       # What write queue length does an incoming req see
system.mem_ctrls.wrQLenPdf::46                      0                       # What write queue length does an incoming req see
system.mem_ctrls.wrQLenPdf::47                      0                       # What write queue length does an incoming req see
system.mem_ctrls.wrQLenPdf::48                      0                       # What write queue length does an incoming req see
system.mem_ctrls.wrQLenPdf::49                      0                       # What write queue length does an incoming req see
system.mem_ctrls.wrQLenPdf::50                      0                       # What write queue length does an incoming req see
system.mem_ctrls.wrQLenPdf::51                      0                       # What write queue length does an incoming req see
system.mem_ctrls.wrQLenPdf::52                      0                       # What write queue length does an incoming req see
system.mem_ctrls.wrQLenPdf::53                      0                       # What write queue length does an incoming req see
system.mem_ctrls.wrQLenPdf::54                      0                       # What write queue length does an incoming req see
system.mem_ctrls.wrQLenPdf::55                      0                       # What write queue length does an incoming req see
system.mem_ctrls.wrQLenPdf::56                      0                       # What write queue length does an incoming req see
system.mem_ctrls.wrQLenPdf::57                      0                       # What write queue length does an incoming req see
system.mem_ctrls.wrQLenPdf::58                      0                       # What write queue length does an incoming req see
system.mem_ctrls.wrQLenPdf::59                      0                       # What write queue length does an incoming req see
system.mem_ctrls.wrQLenPdf::60                      0                       # What write queue length does an incoming req see
system.mem_ctrls.wrQLenPdf::61                      0                       # What write queue length does an incoming req see
system.mem_ctrls.wrQLenPdf::62                      0                       # What write queue length does an incoming req see
system.mem_ctrls.wrQLenPdf::63                      0                       # What write queue length does an incoming req see
system.mem_ctrls.bytesPerActivate::samples         1454                       # Bytes accessed per row activation
system.mem_ctrls.bytesPerActivate::mean    306.046768                       # Bytes accessed per row activation
system.mem_ctrls.bytesPerActivate::gmean   195.141260                       # Bytes accessed per row activation
system.mem_ctrls.bytesPerActivate::stdev   344.392345                       # Bytes accessed per row activation
system.mem_ctrls.bytesPerActivate::0-127          103      7.08%      7.08% # Bytes accessed per row activation
system.mem_ctrls.bytesPerActivate::128-255         1012     69.60%     76.69% # Bytes accessed per row activation
system.mem_ctrls.bytesPerActivate::256-383           31      2.13%     78.82% # Bytes accessed per row activation
system.mem_ctrls.bytesPerActivate::384-511           14      0.96%     79.78% # Bytes accessed per row activation
system.mem_ctrls.bytesPerActivate::512-639           14      0.96%     80.74% # Bytes accessed per row activation
system.mem_ctrls.bytesPerActivate::640-767           13      0.89%     81.64% # Bytes accessed per row activation
system.mem_ctrls.bytesPerActivate::768-895            8      0.55%     82.19% # Bytes accessed per row activation
system.mem_ctrls.bytesPerActivate::896-1023            8      0.55%     82.74% # Bytes accessed per row activation
system.mem_ctrls.bytesPerActivate::1024-1151          251     17.26%    100.00% # Bytes accessed per row activation
system.mem_ctrls.bytesPerActivate::total         1454                       # Bytes accessed per row activation
system.mem_ctrls.totQLat                     52788250                       # Total ticks spent queuing
system.mem_ctrls.totMemAccLat               183682000                       # Total ticks spent from burst creation until serviced by the DRAM
system.mem_ctrls.totBusLat                   34905000                       # Total ticks spent in databus transfers
system.mem_ctrls.avgQLat                      7561.70                       # Average queueing delay per DRAM burst
system.mem_ctrls.avgBusLat                    5000.00                       # Average bus latency per DRAM burst
system.mem_ctrls.avgMemAccLat                26311.70                       # Average memory access latency per DRAM burst
system.mem_ctrls.avgRdBW                       214.25                       # Average DRAM read bandwidth in MiByte/s
system.mem_ctrls.avgWrBW                         0.00                       # Average achieved write bandwidth in MiByte/s
system.mem_ctrls.avgRdBWSys                    214.25                       # Average system read bandwidth in MiByte/s
system.mem_ctrls.avgWrBWSys                      0.00                       # Average system write bandwidth in MiByte/s
system.mem_ctrls.peakBW                      12800.00                       # Theoretical peak bandwidth in MiByte/s
system.mem_ctrls.busUtil                         1.67                       # Data bus utilization in percentage
system.mem_ctrls.busUtilRead                     1.67                       # Data bus utilization in percentage for reads
system.mem_ctrls.busUtilWrite                    0.00                       # Data bus utilization in percentage for writes
system.mem_ctrls.avgRdQLen                       2.43                       # Average read queue length when enqueuing
system.mem_ctrls.avgWrQLen                       0.00                       # Average write queue length when enqueuing
system.mem_ctrls.readRowHits                     5516                       # Number of row buffer hits during reads
system.mem_ctrls.writeRowHits                       0                       # Number of row buffer hits during writes
system.mem_ctrls.readRowHitRate                 79.01                       # Row buffer hit rate for reads
system.mem_ctrls.writeRowHitRate                  nan                       # Row buffer hit rate for writes
system.mem_ctrls.avgGap                     298705.06                       # Average gap between requests
system.mem_ctrls.pageHitRate                    79.01                       # Row buffer hit rate, read and write combined
system.mem_ctrls_0.actEnergy                  6025320                       # Energy for activate commands per rank (pJ)
system.mem_ctrls_0.preEnergy                  3287625                       # Energy for precharge commands per rank (pJ)
system.mem_ctrls_0.readEnergy                29016000                       # Energy for read commands per rank (pJ)
system.mem_ctrls_0.writeEnergy                      0                       # Energy for write commands per rank (pJ)
system.mem_ctrls_0.refreshEnergy            135785520                       # Energy for refresh commands per rank (pJ)
system.mem_ctrls_0.actBackEnergy           1109724165                       # Energy for active background per rank (pJ)
system.mem_ctrls_0.preBackEnergy            274071000                       # Energy for precharge background per rank (pJ)
system.mem_ctrls_0.totalEnergy             1557909630                       # Total energy per rank (pJ)
system.mem_ctrls_0.averagePower            749.287254                       # Core power per rank (mW)
system.mem_ctrls_0.memoryStateTime::IDLE    451520500                       # Time in different power states
system.mem_ctrls_0.memoryStateTime::REF      69420000                       # Time in different power states
system.mem_ctrls_0.memoryStateTime::PRE_PDN            0                       # Time in different power states
system.mem_ctrls_0.memoryStateTime::ACT    1561148500                       # Time in different power states
system.mem_ctrls_0.memoryStateTime::ACT_PDN            0                       # Time in different power states
system.mem_ctrls_1.actEnergy                  4906440                       # Energy for activate commands per rank (pJ)
system.mem_ctrls_1.preEnergy                  2677125                       # Energy for precharge commands per rank (pJ)
system.mem_ctrls_1.readEnergy                24983400                       # Energy for read commands per rank (pJ)
system.mem_ctrls_1.writeEnergy                      0                       # Energy for write commands per rank (pJ)
system.mem_ctrls_1.refreshEnergy            135785520                       # Energy for refresh commands per rank (pJ)
system.mem_ctrls_1.actBackEnergy           1110218355                       # Energy for active background per rank (pJ)
system.mem_ctrls_1.preBackEnergy            273637500                       # Energy for precharge background per rank (pJ)
system.mem_ctrls_1.totalEnergy             1552208340                       # Total energy per rank (pJ)
system.mem_ctrls_1.averagePower            746.545180                       # Core power per rank (mW)
system.mem_ctrls_1.memoryStateTime::IDLE    451828000                       # Time in different power states
system.mem_ctrls_1.memoryStateTime::REF      69420000                       # Time in different power states
system.mem_ctrls_1.memoryStateTime::PRE_PDN            0                       # Time in different power states
system.mem_ctrls_1.memoryStateTime::ACT    1561794500                       # Time in different power states
system.mem_ctrls_1.memoryStateTime::ACT_PDN            0                       # Time in different power states
system.cpu0.branchPred.lookups                 582379                       # Number of BP lookups
system.cpu0.branchPred.condPredicted           580180                       # Number of conditional branches predicted
system.cpu0.branchPred.condIncorrect             5330                       # Number of conditional branches incorrect
system.cpu0.branchPred.BTBLookups              580355                       # Number of BTB lookups
system.cpu0.branchPred.BTBHits                 577209                       # Number of BTB hits
system.cpu0.branchPred.BTBCorrect                   0                       # Number of correct BTB predictions (this stat may not work properly.
system.cpu0.branchPred.BTBHitPct            99.457918                       # BTB Hit Percentage
system.cpu0.branchPred.usedRAS                    815                       # Number of times the RAS was used to get a target.
system.cpu0.branchPred.RASInCorrect                11                       # Number of incorrect RAS predictions.
system.cpu_voltage_domain.voltage                   1                       # Voltage in Volts
system.cpu_clk_domain.clock                       500                       # Clock period in ticks
system.cpu0.dstage2_mmu.stage2_tlb.walker.walks            0                       # Table walker walks requested
system.cpu0.dstage2_mmu.stage2_tlb.walker.walkRequestOrigin_Requested::Data            0                       # Table walker requests started/completed, data/inst
system.cpu0.dstage2_mmu.stage2_tlb.walker.walkRequestOrigin_Requested::Inst            0                       # Table walker requests started/completed, data/inst
system.cpu0.dstage2_mmu.stage2_tlb.walker.walkRequestOrigin_Requested::total            0                       # Table walker requests started/completed, data/inst
system.cpu0.dstage2_mmu.stage2_tlb.walker.walkRequestOrigin_Completed::Data            0                       # Table walker requests started/completed, data/inst
system.cpu0.dstage2_mmu.stage2_tlb.walker.walkRequestOrigin_Completed::Inst            0                       # Table walker requests started/completed, data/inst
system.cpu0.dstage2_mmu.stage2_tlb.walker.walkRequestOrigin_Completed::total            0                       # Table walker requests started/completed, data/inst
system.cpu0.dstage2_mmu.stage2_tlb.walker.walkRequestOrigin::total            0                       # Table walker requests started/completed, data/inst
system.cpu0.dstage2_mmu.stage2_tlb.inst_hits            0                       # ITB inst hits
system.cpu0.dstage2_mmu.stage2_tlb.inst_misses            0                       # ITB inst misses
system.cpu0.dstage2_mmu.stage2_tlb.read_hits            0                       # DTB read hits
system.cpu0.dstage2_mmu.stage2_tlb.read_misses            0                       # DTB read misses
system.cpu0.dstage2_mmu.stage2_tlb.write_hits            0                       # DTB write hits
system.cpu0.dstage2_mmu.stage2_tlb.write_misses            0                       # DTB write misses
system.cpu0.dstage2_mmu.stage2_tlb.flush_tlb            0                       # Number of times complete TLB was flushed
system.cpu0.dstage2_mmu.stage2_tlb.flush_tlb_mva            0                       # Number of times TLB was flushed by MVA
system.cpu0.dstage2_mmu.stage2_tlb.flush_tlb_mva_asid            0                       # Number of times TLB was flushed by MVA & ASID
system.cpu0.dstage2_mmu.stage2_tlb.flush_tlb_asid            0                       # Number of times TLB was flushed by ASID
system.cpu0.dstage2_mmu.stage2_tlb.flush_entries            0                       # Number of entries that have been flushed from TLB
system.cpu0.dstage2_mmu.stage2_tlb.align_faults            0                       # Number of TLB faults due to alignment restrictions
system.cpu0.dstage2_mmu.stage2_tlb.prefetch_faults            0                       # Number of TLB faults due to prefetch
system.cpu0.dstage2_mmu.stage2_tlb.domain_faults            0                       # Number of TLB faults due to domain restrictions
system.cpu0.dstage2_mmu.stage2_tlb.perms_faults            0                       # Number of TLB faults due to permissions restrictions
system.cpu0.dstage2_mmu.stage2_tlb.read_accesses            0                       # DTB read accesses
system.cpu0.dstage2_mmu.stage2_tlb.write_accesses            0                       # DTB write accesses
system.cpu0.dstage2_mmu.stage2_tlb.inst_accesses            0                       # ITB inst accesses
system.cpu0.dstage2_mmu.stage2_tlb.hits             0                       # DTB hits
system.cpu0.dstage2_mmu.stage2_tlb.misses            0                       # DTB misses
system.cpu0.dstage2_mmu.stage2_tlb.accesses            0                       # DTB accesses
system.cpu0.dtb.walker.walks                        0                       # Table walker walks requested
system.cpu0.dtb.walker.walkRequestOrigin_Requested::Data            0                       # Table walker requests started/completed, data/inst
system.cpu0.dtb.walker.walkRequestOrigin_Requested::Inst            0                       # Table walker requests started/completed, data/inst
system.cpu0.dtb.walker.walkRequestOrigin_Requested::total            0                       # Table walker requests started/completed, data/inst
system.cpu0.dtb.walker.walkRequestOrigin_Completed::Data            0                       # Table walker requests started/completed, data/inst
system.cpu0.dtb.walker.walkRequestOrigin_Completed::Inst            0                       # Table walker requests started/completed, data/inst
system.cpu0.dtb.walker.walkRequestOrigin_Completed::total            0                       # Table walker requests started/completed, data/inst
system.cpu0.dtb.walker.walkRequestOrigin::total            0                       # Table walker requests started/completed, data/inst
system.cpu0.dtb.inst_hits                           0                       # ITB inst hits
system.cpu0.dtb.inst_misses                         0                       # ITB inst misses
system.cpu0.dtb.read_hits                           0                       # DTB read hits
system.cpu0.dtb.read_misses                         0                       # DTB read misses
system.cpu0.dtb.write_hits                          0                       # DTB write hits
system.cpu0.dtb.write_misses                        0                       # DTB write misses
system.cpu0.dtb.flush_tlb                           0                       # Number of times complete TLB was flushed
system.cpu0.dtb.flush_tlb_mva                       0                       # Number of times TLB was flushed by MVA
system.cpu0.dtb.flush_tlb_mva_asid                  0                       # Number of times TLB was flushed by MVA & ASID
system.cpu0.dtb.flush_tlb_asid                      0                       # Number of times TLB was flushed by ASID
system.cpu0.dtb.flush_entries                       0                       # Number of entries that have been flushed from TLB
system.cpu0.dtb.align_faults                        0                       # Number of TLB faults due to alignment restrictions
system.cpu0.dtb.prefetch_faults                     0                       # Number of TLB faults due to prefetch
system.cpu0.dtb.domain_faults                       0                       # Number of TLB faults due to domain restrictions
system.cpu0.dtb.perms_faults                        0                       # Number of TLB faults due to permissions restrictions
system.cpu0.dtb.read_accesses                       0                       # DTB read accesses
system.cpu0.dtb.write_accesses                      0                       # DTB write accesses
system.cpu0.dtb.inst_accesses                       0                       # ITB inst accesses
system.cpu0.dtb.hits                                0                       # DTB hits
system.cpu0.dtb.misses                              0                       # DTB misses
system.cpu0.dtb.accesses                            0                       # DTB accesses
system.cpu0.istage2_mmu.stage2_tlb.walker.walks            0                       # Table walker walks requested
system.cpu0.istage2_mmu.stage2_tlb.walker.walkRequestOrigin_Requested::Data            0                       # Table walker requests started/completed, data/inst
system.cpu0.istage2_mmu.stage2_tlb.walker.walkRequestOrigin_Requested::Inst            0                       # Table walker requests started/completed, data/inst
system.cpu0.istage2_mmu.stage2_tlb.walker.walkRequestOrigin_Requested::total            0                       # Table walker requests started/completed, data/inst
system.cpu0.istage2_mmu.stage2_tlb.walker.walkRequestOrigin_Completed::Data            0                       # Table walker requests started/completed, data/inst
system.cpu0.istage2_mmu.stage2_tlb.walker.walkRequestOrigin_Completed::Inst            0                       # Table walker requests started/completed, data/inst
system.cpu0.istage2_mmu.stage2_tlb.walker.walkRequestOrigin_Completed::total            0                       # Table walker requests started/completed, data/inst
system.cpu0.istage2_mmu.stage2_tlb.walker.walkRequestOrigin::total            0                       # Table walker requests started/completed, data/inst
system.cpu0.istage2_mmu.stage2_tlb.inst_hits            0                       # ITB inst hits
system.cpu0.istage2_mmu.stage2_tlb.inst_misses            0                       # ITB inst misses
system.cpu0.istage2_mmu.stage2_tlb.read_hits            0                       # DTB read hits
system.cpu0.istage2_mmu.stage2_tlb.read_misses            0                       # DTB read misses
system.cpu0.istage2_mmu.stage2_tlb.write_hits            0                       # DTB write hits
system.cpu0.istage2_mmu.stage2_tlb.write_misses            0                       # DTB write misses
system.cpu0.istage2_mmu.stage2_tlb.flush_tlb            0                       # Number of times complete TLB was flushed
system.cpu0.istage2_mmu.stage2_tlb.flush_tlb_mva            0                       # Number of times TLB was flushed by MVA
system.cpu0.istage2_mmu.stage2_tlb.flush_tlb_mva_asid            0                       # Number of times TLB was flushed by MVA & ASID
system.cpu0.istage2_mmu.stage2_tlb.flush_tlb_asid            0                       # Number of times TLB was flushed by ASID
system.cpu0.istage2_mmu.stage2_tlb.flush_entries            0                       # Number of entries that have been flushed from TLB
system.cpu0.istage2_mmu.stage2_tlb.align_faults            0                       # Number of TLB faults due to alignment restrictions
system.cpu0.istage2_mmu.stage2_tlb.prefetch_faults            0                       # Number of TLB faults due to prefetch
system.cpu0.istage2_mmu.stage2_tlb.domain_faults            0                       # Number of TLB faults due to domain restrictions
system.cpu0.istage2_mmu.stage2_tlb.perms_faults            0                       # Number of TLB faults due to permissions restrictions
system.cpu0.istage2_mmu.stage2_tlb.read_accesses            0                       # DTB read accesses
system.cpu0.istage2_mmu.stage2_tlb.write_accesses            0                       # DTB write accesses
system.cpu0.istage2_mmu.stage2_tlb.inst_accesses            0                       # ITB inst accesses
system.cpu0.istage2_mmu.stage2_tlb.hits             0                       # DTB hits
system.cpu0.istage2_mmu.stage2_tlb.misses            0                       # DTB misses
system.cpu0.istage2_mmu.stage2_tlb.accesses            0                       # DTB accesses
system.cpu0.itb.walker.walks                        0                       # Table walker walks requested
system.cpu0.itb.walker.walkRequestOrigin_Requested::Data            0                       # Table walker requests started/completed, data/inst
system.cpu0.itb.walker.walkRequestOrigin_Requested::Inst            0                       # Table walker requests started/completed, data/inst
system.cpu0.itb.walker.walkRequestOrigin_Requested::total            0                       # Table walker requests started/completed, data/inst
system.cpu0.itb.walker.walkRequestOrigin_Completed::Data            0                       # Table walker requests started/completed, data/inst
system.cpu0.itb.walker.walkRequestOrigin_Completed::Inst            0                       # Table walker requests started/completed, data/inst
system.cpu0.itb.walker.walkRequestOrigin_Completed::total            0                       # Table walker requests started/completed, data/inst
system.cpu0.itb.walker.walkRequestOrigin::total            0                       # Table walker requests started/completed, data/inst
system.cpu0.itb.inst_hits                           0                       # ITB inst hits
system.cpu0.itb.inst_misses                         0                       # ITB inst misses
system.cpu0.itb.read_hits                           0                       # DTB read hits
system.cpu0.itb.read_misses                         0                       # DTB read misses
system.cpu0.itb.write_hits                          0                       # DTB write hits
system.cpu0.itb.write_misses                        0                       # DTB write misses
system.cpu0.itb.flush_tlb                           0                       # Number of times complete TLB was flushed
system.cpu0.itb.flush_tlb_mva                       0                       # Number of times TLB was flushed by MVA
system.cpu0.itb.flush_tlb_mva_asid                  0                       # Number of times TLB was flushed by MVA & ASID
system.cpu0.itb.flush_tlb_asid                      0                       # Number of times TLB was flushed by ASID
system.cpu0.itb.flush_entries                       0                       # Number of entries that have been flushed from TLB
system.cpu0.itb.align_faults                        0                       # Number of TLB faults due to alignment restrictions
system.cpu0.itb.prefetch_faults                     0                       # Number of TLB faults due to prefetch
system.cpu0.itb.domain_faults                       0                       # Number of TLB faults due to domain restrictions
system.cpu0.itb.perms_faults                        0                       # Number of TLB faults due to permissions restrictions
system.cpu0.itb.read_accesses                       0                       # DTB read accesses
system.cpu0.itb.write_accesses                      0                       # DTB write accesses
system.cpu0.itb.inst_accesses                       0                       # ITB inst accesses
system.cpu0.itb.hits                                0                       # DTB hits
system.cpu0.itb.misses                              0                       # DTB misses
system.cpu0.itb.accesses                            0                       # DTB accesses
system.cpu0.workload.num_syscalls                 108                       # Number of system calls
system.cpu0.numCycles                         4170600                       # number of cpu cycles simulated
system.cpu0.numWorkItemsStarted                     0                       # number of work items this cpu started
system.cpu0.numWorkItemsCompleted                   0                       # number of work items this cpu completed
system.cpu0.fetch.icacheStallCycles           1136320                       # Number of cycles fetch is stalled on an Icache miss
system.cpu0.fetch.Insts                       8500465                       # Number of instructions fetch has processed
system.cpu0.fetch.Branches                     582379                       # Number of branches that fetch encountered
system.cpu0.fetch.predictedBranches            578024                       # Number of branches that fetch has predicted taken
system.cpu0.fetch.Cycles                      2986762                       # Number of cycles fetch has run and was not squashing or blocked
system.cpu0.fetch.SquashCycles                  10805                       # Number of cycles fetch has spent squashing
system.cpu0.fetch.MiscStallCycles                   1                       # Number of cycles fetch has spent waiting on interrupts, or bad addresses, or out of MSHRs
system.cpu0.fetch.PendingTrapStallCycles            5                       # Number of stall cycles due to pending traps
system.cpu0.fetch.CacheLines                  1121542                       # Number of cache lines fetched
system.cpu0.fetch.IcacheSquashes                 1987                       # Number of outstanding Icache misses that were squashed
system.cpu0.fetch.rateDist::samples           4128490                       # Number of instructions fetched each cycle (Total)
system.cpu0.fetch.rateDist::mean             2.061699                       # Number of instructions fetched each cycle (Total)
system.cpu0.fetch.rateDist::stdev            3.068741                       # Number of instructions fetched each cycle (Total)
system.cpu0.fetch.rateDist::underflows              0      0.00%      0.00% # Number of instructions fetched each cycle (Total)
system.cpu0.fetch.rateDist::0                 2637346     63.88%     63.88% # Number of instructions fetched each cycle (Total)
system.cpu0.fetch.rateDist::1                   98358      2.38%     66.26% # Number of instructions fetched each cycle (Total)
system.cpu0.fetch.rateDist::2                  119556      2.90%     69.16% # Number of instructions fetched each cycle (Total)
system.cpu0.fetch.rateDist::3                  109354      2.65%     71.81% # Number of instructions fetched each cycle (Total)
system.cpu0.fetch.rateDist::4                  126115      3.05%     74.86% # Number of instructions fetched each cycle (Total)
system.cpu0.fetch.rateDist::5                  101573      2.46%     77.32% # Number of instructions fetched each cycle (Total)
system.cpu0.fetch.rateDist::6                  114069      2.76%     80.09% # Number of instructions fetched each cycle (Total)
system.cpu0.fetch.rateDist::7                  427519     10.36%     90.44% # Number of instructions fetched each cycle (Total)
system.cpu0.fetch.rateDist::8                  394600      9.56%    100.00% # Number of instructions fetched each cycle (Total)
system.cpu0.fetch.rateDist::overflows               0      0.00%    100.00% # Number of instructions fetched each cycle (Total)
system.cpu0.fetch.rateDist::min_value               0                       # Number of instructions fetched each cycle (Total)
system.cpu0.fetch.rateDist::max_value               8                       # Number of instructions fetched each cycle (Total)
system.cpu0.fetch.rateDist::total             4128490                       # Number of instructions fetched each cycle (Total)
system.cpu0.fetch.branchRate                 0.139639                       # Number of branch fetches per cycle
system.cpu0.fetch.rate                       2.038188                       # Number of inst fetches per cycle
system.cpu0.decode.IdleCycles                  366598                       # Number of cycles decode is idle
system.cpu0.decode.BlockedCycles              2686763                       # Number of cycles decode is blocked
system.cpu0.decode.RunCycles                   308955                       # Number of cycles decode is running
system.cpu0.decode.UnblockCycles               761080                       # Number of cycles decode is unblocking
system.cpu0.decode.SquashCycles                  5094                       # Number of cycles decode is squashing
system.cpu0.decode.BranchResolved                 920                       # Number of times decode resolved a branch
system.cpu0.decode.BranchMispred                  321                       # Number of times decode detected a branch misprediction
system.cpu0.decode.DecodedInsts               8360997                       # Number of instructions handled by decode
system.cpu0.decode.SquashedInsts                 1131                       # Number of squashed instructions handled by decode
system.cpu0.rename.SquashCycles                  5094                       # Number of cycles rename is squashing
system.cpu0.rename.IdleCycles                  618288                       # Number of cycles rename is idle
system.cpu0.rename.BlockCycles                 422281                       # Number of cycles rename is blocking
system.cpu0.rename.serializeStallCycles          9335                       # count of cycles rename stalled for serializing inst
system.cpu0.rename.RunCycles                   808794                       # Number of cycles rename is running
system.cpu0.rename.UnblockCycles              2264698                       # Number of cycles rename is unblocking
system.cpu0.rename.RenamedInsts               8334454                       # Number of instructions processed by rename
system.cpu0.rename.IQFullEvents               1444187                       # Number of times rename has blocked due to IQ full
system.cpu0.rename.LQFullEvents                640662                       # Number of times rename has blocked due to LQ full
system.cpu0.rename.SQFullEvents                254096                       # Number of times rename has blocked due to SQ full
system.cpu0.rename.RenamedOperands           10930811                       # Number of destination operands rename has renamed
system.cpu0.rename.RenameLookups             41062774                       # Number of register rename lookups that rename has made
system.cpu0.rename.int_rename_lookups        13834595                       # Number of integer rename lookups
system.cpu0.rename.fp_rename_lookups               22                       # Number of floating rename lookups
system.cpu0.rename.CommittedMaps             10848626                       # Number of HB maps that are committed
system.cpu0.rename.UndoneMaps                   82185                       # Number of HB maps that are undone due to squashing
system.cpu0.rename.serializingInsts               136                       # count of serializing insts renamed
system.cpu0.rename.tempSerializingInsts           139                       # count of temporary serializing insts renamed
system.cpu0.rename.skidInsts                  3874442                       # count of insts added to the skid buffer
system.cpu0.memDep0.insertedLoads             2131324                       # Number of loads inserted to the mem dependence unit.
system.cpu0.memDep0.insertedStores              83324                       # Number of stores inserted to the mem dependence unit.
system.cpu0.memDep0.conflictingLoads             8855                       # Number of conflicting loads.
system.cpu0.memDep0.conflictingStores             752                       # Number of conflicting stores.
system.cpu0.iq.iqInstsAdded                   8309744                       # Number of instructions added to the IQ (excludes non-spec)
system.cpu0.iq.iqNonSpecInstsAdded                276                       # Number of non-speculative instructions added to the IQ
system.cpu0.iq.iqInstsIssued                 13038082                       # Number of instructions issued
system.cpu0.iq.iqSquashedInstsIssued             7151                       # Number of squashed instructions issued
system.cpu0.iq.iqSquashedInstsExamined          43131                       # Number of squashed instructions iterated over during squash; mainly for profiling
system.cpu0.iq.iqSquashedOperandsExamined       131330                       # Number of squashed operands that are examined and possibly removed from graph
system.cpu0.iq.iqSquashedNonSpecRemoved            84                       # Number of squashed non-spec instructions that were removed
system.cpu0.iq.issued_per_cycle::samples      4128490                       # Number of insts issued each cycle
system.cpu0.iq.issued_per_cycle::mean        3.158075                       # Number of insts issued each cycle
system.cpu0.iq.issued_per_cycle::stdev       2.235804                       # Number of insts issued each cycle
system.cpu0.iq.issued_per_cycle::underflows            0      0.00%      0.00% # Number of insts issued each cycle
system.cpu0.iq.issued_per_cycle::0             638772     15.47%     15.47% # Number of insts issued each cycle
system.cpu0.iq.issued_per_cycle::1             585481     14.18%     29.65% # Number of insts issued each cycle
system.cpu0.iq.issued_per_cycle::2             554310     13.43%     43.08% # Number of insts issued each cycle
system.cpu0.iq.issued_per_cycle::3             425583     10.31%     53.39% # Number of insts issued each cycle
system.cpu0.iq.issued_per_cycle::4             618363     14.98%     68.37% # Number of insts issued each cycle
system.cpu0.iq.issued_per_cycle::5             618586     14.98%     83.35% # Number of insts issued each cycle
system.cpu0.iq.issued_per_cycle::6             401379      9.72%     93.07% # Number of insts issued each cycle
system.cpu0.iq.issued_per_cycle::7             195552      4.74%     97.81% # Number of insts issued each cycle
system.cpu0.iq.issued_per_cycle::8              90464      2.19%    100.00% # Number of insts issued each cycle
system.cpu0.iq.issued_per_cycle::overflows            0      0.00%    100.00% # Number of insts issued each cycle
system.cpu0.iq.issued_per_cycle::min_value            0                       # Number of insts issued each cycle
system.cpu0.iq.issued_per_cycle::max_value            8                       # Number of insts issued each cycle
system.cpu0.iq.issued_per_cycle::total        4128490                       # Number of insts issued each cycle
system.cpu0.iq.fu_full::No_OpClass                  0      0.00%      0.00% # attempts to use FU when none available
system.cpu0.iq.fu_full::IntAlu                     34      0.00%      0.00% # attempts to use FU when none available
system.cpu0.iq.fu_full::IntMult                 10277      0.95%      0.95% # attempts to use FU when none available
system.cpu0.iq.fu_full::IntDiv                      0      0.00%      0.95% # attempts to use FU when none available
system.cpu0.iq.fu_full::FloatAdd                    0      0.00%      0.95% # attempts to use FU when none available
system.cpu0.iq.fu_full::FloatCmp                    0      0.00%      0.95% # attempts to use FU when none available
system.cpu0.iq.fu_full::FloatCvt                    0      0.00%      0.95% # attempts to use FU when none available
system.cpu0.iq.fu_full::FloatMult                   0      0.00%      0.95% # attempts to use FU when none available
system.cpu0.iq.fu_full::FloatDiv                    0      0.00%      0.95% # attempts to use FU when none available
system.cpu0.iq.fu_full::FloatSqrt                   0      0.00%      0.95% # attempts to use FU when none available
system.cpu0.iq.fu_full::SimdAdd                     0      0.00%      0.95% # attempts to use FU when none available
system.cpu0.iq.fu_full::SimdAddAcc                  0      0.00%      0.95% # attempts to use FU when none available
system.cpu0.iq.fu_full::SimdAlu                     0      0.00%      0.95% # attempts to use FU when none available
system.cpu0.iq.fu_full::SimdCmp                     0      0.00%      0.95% # attempts to use FU when none available
system.cpu0.iq.fu_full::SimdCvt                     0      0.00%      0.95% # attempts to use FU when none available
system.cpu0.iq.fu_full::SimdMisc                    0      0.00%      0.95% # attempts to use FU when none available
system.cpu0.iq.fu_full::SimdMult                    0      0.00%      0.95% # attempts to use FU when none available
system.cpu0.iq.fu_full::SimdMultAcc                 0      0.00%      0.95% # attempts to use FU when none available
system.cpu0.iq.fu_full::SimdShift                   0      0.00%      0.95% # attempts to use FU when none available
system.cpu0.iq.fu_full::SimdShiftAcc                0      0.00%      0.95% # attempts to use FU when none available
system.cpu0.iq.fu_full::SimdSqrt                    0      0.00%      0.95% # attempts to use FU when none available
system.cpu0.iq.fu_full::SimdFloatAdd                0      0.00%      0.95% # attempts to use FU when none available
system.cpu0.iq.fu_full::SimdFloatAlu                0      0.00%      0.95% # attempts to use FU when none available
system.cpu0.iq.fu_full::SimdFloatCmp                0      0.00%      0.95% # attempts to use FU when none available
system.cpu0.iq.fu_full::SimdFloatCvt                0      0.00%      0.95% # attempts to use FU when none available
system.cpu0.iq.fu_full::SimdFloatDiv                0      0.00%      0.95% # attempts to use FU when none available
system.cpu0.iq.fu_full::SimdFloatMisc               0      0.00%      0.95% # attempts to use FU when none available
system.cpu0.iq.fu_full::SimdFloatMult               0      0.00%      0.95% # attempts to use FU when none available
system.cpu0.iq.fu_full::SimdFloatMultAcc            0      0.00%      0.95% # attempts to use FU when none available
system.cpu0.iq.fu_full::SimdFloatSqrt               0      0.00%      0.95% # attempts to use FU when none available
system.cpu0.iq.fu_full::MemRead               1072473     99.03%     99.98% # attempts to use FU when none available
system.cpu0.iq.fu_full::MemWrite                  227      0.02%    100.00% # attempts to use FU when none available
system.cpu0.iq.fu_full::IprAccess                   0      0.00%    100.00% # attempts to use FU when none available
system.cpu0.iq.fu_full::InstPrefetch                0      0.00%    100.00% # attempts to use FU when none available
system.cpu0.iq.FU_type_0::No_OpClass                0      0.00%      0.00% # Type of FU issued
system.cpu0.iq.FU_type_0::IntAlu              4478039     34.35%     34.35% # Type of FU issued
system.cpu0.iq.FU_type_0::IntMult             1606042     12.32%     46.66% # Type of FU issued
system.cpu0.iq.FU_type_0::IntDiv                    0      0.00%     46.66% # Type of FU issued
system.cpu0.iq.FU_type_0::FloatAdd                  0      0.00%     46.66% # Type of FU issued
system.cpu0.iq.FU_type_0::FloatCmp                  0      0.00%     46.66% # Type of FU issued
system.cpu0.iq.FU_type_0::FloatCvt                  0      0.00%     46.66% # Type of FU issued
system.cpu0.iq.FU_type_0::FloatMult                 0      0.00%     46.66% # Type of FU issued
system.cpu0.iq.FU_type_0::FloatDiv                  0      0.00%     46.66% # Type of FU issued
system.cpu0.iq.FU_type_0::FloatSqrt                 0      0.00%     46.66% # Type of FU issued
system.cpu0.iq.FU_type_0::SimdAdd                   0      0.00%     46.66% # Type of FU issued
system.cpu0.iq.FU_type_0::SimdAddAcc                0      0.00%     46.66% # Type of FU issued
system.cpu0.iq.FU_type_0::SimdAlu                   0      0.00%     46.66% # Type of FU issued
system.cpu0.iq.FU_type_0::SimdCmp                   0      0.00%     46.66% # Type of FU issued
system.cpu0.iq.FU_type_0::SimdCvt                   0      0.00%     46.66% # Type of FU issued
system.cpu0.iq.FU_type_0::SimdMisc                  0      0.00%     46.66% # Type of FU issued
system.cpu0.iq.FU_type_0::SimdMult                  0      0.00%     46.66% # Type of FU issued
system.cpu0.iq.FU_type_0::SimdMultAcc               0      0.00%     46.66% # Type of FU issued
system.cpu0.iq.FU_type_0::SimdShift                 0      0.00%     46.66% # Type of FU issued
system.cpu0.iq.FU_type_0::SimdShiftAcc              0      0.00%     46.66% # Type of FU issued
system.cpu0.iq.FU_type_0::SimdSqrt                  0      0.00%     46.66% # Type of FU issued
system.cpu0.iq.FU_type_0::SimdFloatAdd              0      0.00%     46.66% # Type of FU issued
system.cpu0.iq.FU_type_0::SimdFloatAlu              0      0.00%     46.66% # Type of FU issued
system.cpu0.iq.FU_type_0::SimdFloatCmp              0      0.00%     46.66% # Type of FU issued
system.cpu0.iq.FU_type_0::SimdFloatCvt              0      0.00%     46.66% # Type of FU issued
system.cpu0.iq.FU_type_0::SimdFloatDiv              0      0.00%     46.66% # Type of FU issued
system.cpu0.iq.FU_type_0::SimdFloatMisc             3      0.00%     46.66% # Type of FU issued
system.cpu0.iq.FU_type_0::SimdFloatMult             0      0.00%     46.66% # Type of FU issued
system.cpu0.iq.FU_type_0::SimdFloatMultAcc            0      0.00%     46.66% # Type of FU issued
system.cpu0.iq.FU_type_0::SimdFloatSqrt             0      0.00%     46.66% # Type of FU issued
system.cpu0.iq.FU_type_0::MemRead             6871661     52.70%     99.37% # Type of FU issued
system.cpu0.iq.FU_type_0::MemWrite              82337      0.63%    100.00% # Type of FU issued
system.cpu0.iq.FU_type_0::IprAccess                 0      0.00%    100.00% # Type of FU issued
system.cpu0.iq.FU_type_0::InstPrefetch              0      0.00%    100.00% # Type of FU issued
system.cpu0.iq.FU_type_0::total              13038082                       # Type of FU issued
system.cpu0.iq.rate                          3.126189                       # Inst issue rate
system.cpu0.iq.fu_busy_cnt                    1083011                       # FU busy when requested
system.cpu0.iq.fu_busy_rate                  0.083065                       # FU busy rate (busy events/executed inst)
system.cpu0.iq.int_inst_queue_reads          31294755                       # Number of integer instruction queue reads
system.cpu0.iq.int_inst_queue_writes          8353200                       # Number of integer instruction queue writes
system.cpu0.iq.int_inst_queue_wakeup_accesses      8280009                       # Number of integer instruction queue wakeup accesses
system.cpu0.iq.fp_inst_queue_reads                 61                       # Number of floating instruction queue reads
system.cpu0.iq.fp_inst_queue_writes                28                       # Number of floating instruction queue writes
system.cpu0.iq.fp_inst_queue_wakeup_accesses           28                       # Number of floating instruction queue wakeup accesses
system.cpu0.iq.int_alu_accesses              14121060                       # Number of integer alu accesses
system.cpu0.iq.fp_alu_accesses                     33                       # Number of floating point alu accesses
system.cpu0.iew.lsq.thread0.forwLoads             137                       # Number of loads that had data forwarded from stores
system.cpu0.iew.lsq.thread0.invAddrLoads            0                       # Number of loads ignored due to an invalid address
system.cpu0.iew.lsq.thread0.squashedLoads        14579                       # Number of loads squashed
system.cpu0.iew.lsq.thread0.ignoredResponses            3                       # Number of memory responses ignored because the instruction is squashed
system.cpu0.iew.lsq.thread0.memOrderViolation           79                       # Number of memory ordering violations
system.cpu0.iew.lsq.thread0.squashedStores         1609                       # Number of stores squashed
system.cpu0.iew.lsq.thread0.invAddrSwpfs            0                       # Number of software prefetches ignored due to an invalid address
system.cpu0.iew.lsq.thread0.blockedLoads            0                       # Number of blocked loads due to partial load-store forwarding
system.cpu0.iew.lsq.thread0.rescheduledLoads          125                       # Number of loads that were rescheduled
system.cpu0.iew.lsq.thread0.cacheBlocked      4756623                       # Number of times an access to memory failed due to the cache being blocked
system.cpu0.iew.iewIdleCycles                       0                       # Number of cycles IEW is idle
system.cpu0.iew.iewSquashCycles                  5094                       # Number of cycles IEW is squashing
system.cpu0.iew.iewBlockCycles                  73575                       # Number of cycles IEW is blocking
system.cpu0.iew.iewUnblockCycles                27850                       # Number of cycles IEW is unblocking
system.cpu0.iew.iewDispatchedInsts            8310027                       # Number of instructions dispatched to IQ
system.cpu0.iew.iewDispSquashedInsts             7136                       # Number of squashed instructions skipped by dispatch
system.cpu0.iew.iewDispLoadInsts              2131324                       # Number of dispatched load instructions
system.cpu0.iew.iewDispStoreInsts               83324                       # Number of dispatched store instructions
system.cpu0.iew.iewDispNonSpecInsts               127                       # Number of dispatched non-speculative instructions
system.cpu0.iew.iewIQFullEvents                 12457                       # Number of times the IQ has become full, causing a stall
system.cpu0.iew.iewLSQFullEvents                 7793                       # Number of times the LSQ has become full, causing a stall
system.cpu0.iew.memOrderViolationEvents            79                       # Number of memory order violations
system.cpu0.iew.predictedTakenIncorrect          4505                       # Number of branches that were predicted taken incorrectly
system.cpu0.iew.predictedNotTakenIncorrect          591                       # Number of branches that were predicted not taken incorrectly
system.cpu0.iew.branchMispredicts                5096                       # Number of branch mispredicts detected at execute
system.cpu0.iew.iewExecutedInsts             13030487                       # Number of executed instructions
system.cpu0.iew.iewExecLoadInsts              6868070                       # Number of load instructions executed
system.cpu0.iew.iewExecSquashedInsts             7595                       # Number of squashed instructions skipped in execute
system.cpu0.iew.exec_swp                            0                       # number of swp insts executed
system.cpu0.iew.exec_nop                            7                       # number of nop insts executed
system.cpu0.iew.exec_refs                     6950249                       # number of memory reference insts executed
system.cpu0.iew.exec_branches                  565603                       # Number of branches executed
system.cpu0.iew.exec_stores                     82179                       # Number of stores executed
system.cpu0.iew.exec_rate                    3.124367                       # Inst execution rate
system.cpu0.iew.wb_sent                       8280422                       # cumulative count of insts sent to commit
system.cpu0.iew.wb_count                      8280037                       # cumulative count of insts written-back
system.cpu0.iew.wb_producers                  6294470                       # num instructions producing a value
system.cpu0.iew.wb_consumers                  8718481                       # num instructions consuming a value
system.cpu0.iew.wb_penalized                        0                       # number of instrctions required to write to 'other' IQ
system.cpu0.iew.wb_rate                      1.985335                       # insts written-back per cycle
system.cpu0.iew.wb_fanout                    0.721969                       # average fanout of values written-back
system.cpu0.iew.wb_penalized_rate                   0                       # fraction of instructions written-back that wrote to 'other' IQ
system.cpu0.commit.commitSquashedInsts          43185                       # The number of squashed insts skipped by commit
system.cpu0.commit.commitNonSpecStalls            192                       # The number of times commit has been forced to stall to communicate backwards
system.cpu0.commit.branchMispredicts             5022                       # The number of times a branch was mispredicted
system.cpu0.commit.committed_per_cycle::samples      4120420                       # Number of insts commited each cycle
system.cpu0.commit.committed_per_cycle::mean     2.006322                       # Number of insts commited each cycle
system.cpu0.commit.committed_per_cycle::stdev     2.747050                       # Number of insts commited each cycle
system.cpu0.commit.committed_per_cycle::underflows            0      0.00%      0.00% # Number of insts commited each cycle
system.cpu0.commit.committed_per_cycle::0      1797334     43.62%     43.62% # Number of insts commited each cycle
system.cpu0.commit.committed_per_cycle::1       850571     20.64%     64.26% # Number of insts commited each cycle
system.cpu0.commit.committed_per_cycle::2       404472      9.82%     74.08% # Number of insts commited each cycle
system.cpu0.commit.committed_per_cycle::3       206284      5.01%     79.09% # Number of insts commited each cycle
system.cpu0.commit.committed_per_cycle::4        44046      1.07%     80.15% # Number of insts commited each cycle
system.cpu0.commit.committed_per_cycle::5       190563      4.62%     84.78% # Number of insts commited each cycle
system.cpu0.commit.committed_per_cycle::6        56812      1.38%     86.16% # Number of insts commited each cycle
system.cpu0.commit.committed_per_cycle::7        44053      1.07%     87.23% # Number of insts commited each cycle
system.cpu0.commit.committed_per_cycle::8       526285     12.77%    100.00% # Number of insts commited each cycle
system.cpu0.commit.committed_per_cycle::overflows            0      0.00%    100.00% # Number of insts commited each cycle
system.cpu0.commit.committed_per_cycle::min_value            0                       # Number of insts commited each cycle
system.cpu0.commit.committed_per_cycle::max_value            8                       # Number of insts commited each cycle
system.cpu0.commit.committed_per_cycle::total      4120420                       # Number of insts commited each cycle
system.cpu0.commit.committedInsts             8258962                       # Number of instructions committed
system.cpu0.commit.committedOps               8266889                       # Number of ops (including micro ops) committed
system.cpu0.commit.swp_count                        0                       # Number of s/w prefetches committed
system.cpu0.commit.refs                       2198460                       # Number of memory references committed
system.cpu0.commit.loads                      2116745                       # Number of loads committed
system.cpu0.commit.membars                        113                       # Number of memory barriers committed
system.cpu0.commit.branches                    564614                       # Number of branches committed
system.cpu0.commit.fp_insts                        28                       # Number of committed floating point instructions.
system.cpu0.commit.int_insts                  7702786                       # Number of committed integer instructions.
system.cpu0.commit.function_calls                 294                       # Number of function calls committed.
system.cpu0.commit.op_class_0::No_OpClass            0      0.00%      0.00% # Class of committed instruction
system.cpu0.commit.op_class_0::IntAlu         4462766     53.98%     53.98% # Class of committed instruction
system.cpu0.commit.op_class_0::IntMult        1605660     19.42%     73.41% # Class of committed instruction
system.cpu0.commit.op_class_0::IntDiv               0      0.00%     73.41% # Class of committed instruction
system.cpu0.commit.op_class_0::FloatAdd             0      0.00%     73.41% # Class of committed instruction
system.cpu0.commit.op_class_0::FloatCmp             0      0.00%     73.41% # Class of committed instruction
system.cpu0.commit.op_class_0::FloatCvt             0      0.00%     73.41% # Class of committed instruction
system.cpu0.commit.op_class_0::FloatMult            0      0.00%     73.41% # Class of committed instruction
system.cpu0.commit.op_class_0::FloatDiv             0      0.00%     73.41% # Class of committed instruction
system.cpu0.commit.op_class_0::FloatSqrt            0      0.00%     73.41% # Class of committed instruction
system.cpu0.commit.op_class_0::SimdAdd              0      0.00%     73.41% # Class of committed instruction
system.cpu0.commit.op_class_0::SimdAddAcc            0      0.00%     73.41% # Class of committed instruction
system.cpu0.commit.op_class_0::SimdAlu              0      0.00%     73.41% # Class of committed instruction
system.cpu0.commit.op_class_0::SimdCmp              0      0.00%     73.41% # Class of committed instruction
system.cpu0.commit.op_class_0::SimdCvt              0      0.00%     73.41% # Class of committed instruction
system.cpu0.commit.op_class_0::SimdMisc             0      0.00%     73.41% # Class of committed instruction
system.cpu0.commit.op_class_0::SimdMult             0      0.00%     73.41% # Class of committed instruction
system.cpu0.commit.op_class_0::SimdMultAcc            0      0.00%     73.41% # Class of committed instruction
system.cpu0.commit.op_class_0::SimdShift            0      0.00%     73.41% # Class of committed instruction
system.cpu0.commit.op_class_0::SimdShiftAcc            0      0.00%     73.41% # Class of committed instruction
system.cpu0.commit.op_class_0::SimdSqrt             0      0.00%     73.41% # Class of committed instruction
system.cpu0.commit.op_class_0::SimdFloatAdd            0      0.00%     73.41% # Class of committed instruction
system.cpu0.commit.op_class_0::SimdFloatAlu            0      0.00%     73.41% # Class of committed instruction
system.cpu0.commit.op_class_0::SimdFloatCmp            0      0.00%     73.41% # Class of committed instruction
system.cpu0.commit.op_class_0::SimdFloatCvt            0      0.00%     73.41% # Class of committed instruction
system.cpu0.commit.op_class_0::SimdFloatDiv            0      0.00%     73.41% # Class of committed instruction
system.cpu0.commit.op_class_0::SimdFloatMisc            3      0.00%     73.41% # Class of committed instruction
system.cpu0.commit.op_class_0::SimdFloatMult            0      0.00%     73.41% # Class of committed instruction
system.cpu0.commit.op_class_0::SimdFloatMultAcc            0      0.00%     73.41% # Class of committed instruction
system.cpu0.commit.op_class_0::SimdFloatSqrt            0      0.00%     73.41% # Class of committed instruction
[...]
system.l2.demand_mshr_miss_latency::total    446601751                       # number of demand (read+write) MSHR miss cycles
system.l2.overall_mshr_miss_latency::cpu0.inst     34138000                       # number of overall MSHR miss cycles
system.l2.overall_mshr_miss_latency::cpu0.data    300213751                       # number of overall MSHR miss cycles
system.l2.overall_mshr_miss_latency::cpu1.inst      1141500                       # number of overall MSHR miss cycles
system.l2.overall_mshr_miss_latency::cpu1.data     37312500                       # number of overall MSHR miss cycles
system.l2.overall_mshr_miss_latency::cpu2.inst       320250                       # number of overall MSHR miss cycles
system.l2.overall_mshr_miss_latency::cpu2.data     36589250                       # number of overall MSHR miss cycles
system.l2.overall_mshr_miss_latency::cpu3.inst       266750                       # number of overall MSHR miss cycles
system.l2.overall_mshr_miss_latency::cpu3.data     36619750                       # number of overall MSHR miss cycles
system.l2.overall_mshr_miss_latency::total    446601751                       # number of overall MSHR miss cycles
system.l2.ReadReq_mshr_miss_rate::cpu0.inst     0.837662                       # mshr miss rate for ReadReq accesses
system.l2.ReadReq_mshr_miss_rate::cpu0.data     0.000892                       # mshr miss rate for ReadReq accesses
system.l2.ReadReq_mshr_miss_rate::cpu1.inst     0.280000                       # mshr miss rate for ReadReq accesses
system.l2.ReadReq_mshr_miss_rate::cpu1.data     0.000062                       # mshr miss rate for ReadReq accesses
system.l2.ReadReq_mshr_miss_rate::cpu2.inst     0.098039                       # mshr miss rate for ReadReq accesses
system.l2.ReadReq_mshr_miss_rate::cpu2.data     0.000021                       # mshr miss rate for ReadReq accesses
system.l2.ReadReq_mshr_miss_rate::cpu3.inst     0.076923                       # mshr miss rate for ReadReq accesses
system.l2.ReadReq_mshr_miss_rate::cpu3.data     0.000027                       # mshr miss rate for ReadReq accesses
system.l2.ReadReq_mshr_miss_rate::total      0.001175                       # mshr miss rate for ReadReq accesses
system.l2.UpgradeReq_mshr_miss_rate::cpu0.data     0.600000                       # mshr miss rate for UpgradeReq accesses
system.l2.UpgradeReq_mshr_miss_rate::total     0.600000                       # mshr miss rate for UpgradeReq accesses
system.l2.ReadExReq_mshr_miss_rate::cpu0.data     0.568674                       # mshr miss rate for ReadExReq accesses
system.l2.ReadExReq_mshr_miss_rate::cpu1.data     0.126007                       # mshr miss rate for ReadExReq accesses
system.l2.ReadExReq_mshr_miss_rate::cpu2.data     0.125977                       # mshr miss rate for ReadExReq accesses
system.l2.ReadExReq_mshr_miss_rate::cpu3.data     0.126190                       # mshr miss rate for ReadExReq accesses
system.l2.ReadExReq_mshr_miss_rate::total     0.305150                       # mshr miss rate for ReadExReq accesses
system.l2.demand_mshr_miss_rate::cpu0.inst     0.837662                       # mshr miss rate for demand accesses
system.l2.demand_mshr_miss_rate::cpu0.data     0.031667                       # mshr miss rate for demand accesses
system.l2.demand_mshr_miss_rate::cpu1.inst     0.280000                       # mshr miss rate for demand accesses
system.l2.demand_mshr_miss_rate::cpu1.data     0.003508                       # mshr miss rate for demand accesses
system.l2.demand_mshr_miss_rate::cpu2.inst     0.098039                       # mshr miss rate for demand accesses
system.l2.demand_mshr_miss_rate::cpu2.data     0.003481                       # mshr miss rate for demand accesses
system.l2.demand_mshr_miss_rate::cpu3.inst     0.076923                       # mshr miss rate for demand accesses
system.l2.demand_mshr_miss_rate::cpu3.data     0.003474                       # mshr miss rate for demand accesses
system.l2.demand_mshr_miss_rate::total       0.011570                       # mshr miss rate for demand accesses
system.l2.overall_mshr_miss_rate::cpu0.inst     0.837662                       # mshr miss rate for overall accesses
system.l2.overall_mshr_miss_rate::cpu0.data     0.031667                       # mshr miss rate for overall accesses
system.l2.overall_mshr_miss_rate::cpu1.inst     0.280000                       # mshr miss rate for overall accesses
system.l2.overall_mshr_miss_rate::cpu1.data     0.003508                       # mshr miss rate for overall accesses
system.l2.overall_mshr_miss_rate::cpu2.inst     0.098039                       # mshr miss rate for overall accesses
system.l2.overall_mshr_miss_rate::cpu2.data     0.003481                       # mshr miss rate for overall accesses
system.l2.overall_mshr_miss_rate::cpu3.inst     0.076923                       # mshr miss rate for overall accesses
system.l2.overall_mshr_miss_rate::cpu3.data     0.003474                       # mshr miss rate for overall accesses
system.l2.overall_mshr_miss_rate::total      0.011570                       # mshr miss rate for overall accesses
system.l2.ReadReq_avg_mshr_miss_latency::cpu0.inst 66158.914729                       # average ReadReq mshr miss latency
system.l2.ReadReq_avg_mshr_miss_latency::cpu0.data 73603.846154                       # average ReadReq mshr miss latency
system.l2.ReadReq_avg_mshr_miss_latency::cpu1.inst 81535.714286                       # average ReadReq mshr miss latency
system.l2.ReadReq_avg_mshr_miss_latency::cpu1.data 66333.333333                       # average ReadReq mshr miss latency
system.l2.ReadReq_avg_mshr_miss_latency::cpu2.inst        64050                       # average ReadReq mshr miss latency
system.l2.ReadReq_avg_mshr_miss_latency::cpu2.data        61000                       # average ReadReq mshr miss latency
system.l2.ReadReq_avg_mshr_miss_latency::cpu3.inst 66687.500000                       # average ReadReq mshr miss latency
system.l2.ReadReq_avg_mshr_miss_latency::cpu3.data 66812.500000                       # average ReadReq mshr miss latency
system.l2.ReadReq_avg_mshr_miss_latency::total 67857.299270                       # average ReadReq mshr miss latency
system.l2.UpgradeReq_avg_mshr_miss_latency::cpu0.data        17501                       # average UpgradeReq mshr miss latency
system.l2.UpgradeReq_avg_mshr_miss_latency::total        17501                       # average UpgradeReq mshr miss latency
system.l2.ReadExReq_avg_mshr_miss_latency::cpu0.data 61201.358391                       # average ReadExReq mshr miss latency
system.l2.ReadExReq_avg_mshr_miss_latency::cpu1.data 71154.069767                       # average ReadExReq mshr miss latency
system.l2.ReadExReq_avg_mshr_miss_latency::cpu2.data 70554.748062                       # average ReadExReq mshr miss latency
system.l2.ReadExReq_avg_mshr_miss_latency::cpu3.data 70314.313346                       # average ReadExReq mshr miss latency
system.l2.ReadExReq_avg_mshr_miss_latency::total 63531.200540                       # average ReadExReq mshr miss latency
system.l2.demand_avg_mshr_miss_latency::cpu0.inst 66158.914729                       # average overall mshr miss latency
system.l2.demand_avg_mshr_miss_latency::cpu0.data 61531.820250                       # average overall mshr miss latency
system.l2.demand_avg_mshr_miss_latency::cpu1.inst 81535.714286                       # average overall mshr miss latency
system.l2.demand_avg_mshr_miss_latency::cpu1.data 71071.428571                       # average overall mshr miss latency
system.l2.demand_avg_mshr_miss_latency::cpu2.inst        64050                       # average overall mshr miss latency
system.l2.demand_avg_mshr_miss_latency::cpu2.data 70499.518304                       # average overall mshr miss latency
system.l2.demand_avg_mshr_miss_latency::cpu3.inst 66687.500000                       # average overall mshr miss latency
system.l2.demand_avg_mshr_miss_latency::cpu3.data 70287.428023                       # average overall mshr miss latency
system.l2.demand_avg_mshr_miss_latency::total 63955.570815                       # average overall mshr miss latency
system.l2.overall_avg_mshr_miss_latency::cpu0.inst 66158.914729                       # average overall mshr miss latency
system.l2.overall_avg_mshr_miss_latency::cpu0.data 61531.820250                       # average overall mshr miss latency
system.l2.overall_avg_mshr_miss_latency::cpu1.inst 81535.714286                       # average overall mshr miss latency
system.l2.overall_avg_mshr_miss_latency::cpu1.data 71071.428571                       # average overall mshr miss latency
system.l2.overall_avg_mshr_miss_latency::cpu2.inst        64050                       # average overall mshr miss latency
system.l2.overall_avg_mshr_miss_latency::cpu2.data 70499.518304                       # average overall mshr miss latency
system.l2.overall_avg_mshr_miss_latency::cpu3.inst 66687.500000                       # average overall mshr miss latency
system.l2.overall_avg_mshr_miss_latency::cpu3.data 70287.428023                       # average overall mshr miss latency
system.l2.overall_avg_mshr_miss_latency::total 63955.570815                       # average overall mshr miss latency
system.l2.no_allocate_misses                        0                       # Number of misses that were no-allocate
system.membus.trans_dist::ReadReq                 684                       # Transaction distribution
system.membus.trans_dist::ReadResp                683                       # Transaction distribution
system.membus.trans_dist::UpgradeReq                8                       # Transaction distribution
system.membus.trans_dist::SCUpgradeReq              7                       # Transaction distribution
system.membus.trans_dist::UpgradeResp               4                       # Transaction distribution
system.membus.trans_dist::ReadExReq              6297                       # Transaction distribution
system.membus.trans_dist::ReadExResp             6297                       # Transaction distribution
system.membus.pkt_count_system.l2.mem_side::system.mem_ctrls.port        13980                       # Packet count per connected master and slave (bytes)
system.membus.pkt_count::total                  13980                       # Packet count per connected master and slave (bytes)
system.membus.pkt_size_system.l2.mem_side::system.mem_ctrls.port       446720                       # Cumulative packet size per connected master and slave (bytes)
system.membus.pkt_size::total                  446720                       # Cumulative packet size per connected master and slave (bytes)
system.membus.snoops                               11                       # Total snoops (count)
system.membus.snoop_fanout::samples              6996                       # Request fanout histogram
system.membus.snoop_fanout::mean                    0                       # Request fanout histogram
system.membus.snoop_fanout::stdev                   0                       # Request fanout histogram
system.membus.snoop_fanout::underflows              0      0.00%      0.00% # Request fanout histogram
system.membus.snoop_fanout::0                    6996    100.00%    100.00% # Request fanout histogram
system.membus.snoop_fanout::1                       0      0.00%    100.00% # Request fanout histogram
system.membus.snoop_fanout::overflows               0      0.00%    100.00% # Request fanout histogram
system.membus.snoop_fanout::min_value               0                       # Request fanout histogram
system.membus.snoop_fanout::max_value               0                       # Request fanout histogram
system.membus.snoop_fanout::total                6996                       # Request fanout histogram
system.membus.reqLayer0.occupancy             7685500                       # Layer occupancy (ticks)
system.membus.reqLayer0.utilization               0.4                       # Layer utilization (%)
system.membus.respLayer1.occupancy           36919746                       # Layer occupancy (ticks)
system.membus.respLayer1.utilization              1.8                       # Layer utilization (%)
system.tol2bus.trans_dist::ReadReq            2121243                       # Transaction distribution
system.tol2bus.trans_dist::ReadResp           2121241                       # Transaction distribution
system.tol2bus.trans_dist::Writeback           544672                       # Transaction distribution
system.tol2bus.trans_dist::UpgradeReq               9                       # Transaction distribution
system.tol2bus.trans_dist::SCUpgradeReq             9                       # Transaction distribution
system.tol2bus.trans_dist::UpgradeResp             18                       # Transaction distribution
system.tol2bus.trans_dist::SCUpgradeFailReq            1                       # Transaction distribution
system.tol2bus.trans_dist::UpgradeFailResp            1                       # Transaction distribution
system.tol2bus.trans_dist::ReadExReq            20645                       # Transaction distribution
system.tol2bus.trans_dist::ReadExResp           20645                       # Transaction distribution
system.tol2bus.pkt_count_system.cpu0.icache.mem_side::system.l2.cpu_side         1230                       # Packet count per connected master and slave (bytes)
system.tol2bus.pkt_count_system.cpu0.dcache.mem_side::system.l2.cpu_side       832294                       # Packet count per connected master and slave (bytes)
system.tol2bus.pkt_count_system.cpu1.icache.mem_side::system.l2.cpu_side          100                       # Packet count per connected master and slave (bytes)
system.tol2bus.pkt_count_system.cpu1.dcache.mem_side::system.l2.cpu_side       818998                       # Packet count per connected master and slave (bytes)
system.tol2bus.pkt_count_system.cpu2.icache.mem_side::system.l2.cpu_side          102                       # Packet count per connected master and slave (bytes)
system.tol2bus.pkt_count_system.cpu2.dcache.mem_side::system.l2.cpu_side       817695                       # Packet count per connected master and slave (bytes)
system.tol2bus.pkt_count_system.cpu3.icache.mem_side::system.l2.cpu_side          104                       # Packet count per connected master and slave (bytes)
system.tol2bus.pkt_count_system.cpu3.dcache.mem_side::system.l2.cpu_side       819615                       # Packet count per connected master and slave (bytes)
system.tol2bus.pkt_count::total               3290138                       # Packet count per connected master and slave (bytes)
system.tol2bus.pkt_size_system.cpu0.icache.mem_side::system.l2.cpu_side        39296                       # Cumulative packet size per connected master and slave (bytes)
system.tol2bus.pkt_size_system.cpu0.dcache.mem_side::system.l2.cpu_side     18781120                       # Cumulative packet size per connected master and slave (bytes)
system.tol2bus.pkt_size_system.cpu1.icache.mem_side::system.l2.cpu_side         3200                       # Cumulative packet size per connected master and slave (bytes)
system.tol2bus.pkt_size_system.cpu1.dcache.mem_side::system.l2.cpu_side     18235072                       # Cumulative packet size per connected master and slave (bytes)
system.tol2bus.pkt_size_system.cpu2.icache.mem_side::system.l2.cpu_side         3264                       # Cumulative packet size per connected master and slave (bytes)
system.tol2bus.pkt_size_system.cpu2.dcache.mem_side::system.l2.cpu_side     18149568                       # Cumulative packet size per connected master and slave (bytes)
system.tol2bus.pkt_size_system.cpu3.icache.mem_side::system.l2.cpu_side         3328                       # Cumulative packet size per connected master and slave (bytes)
system.tol2bus.pkt_size_system.cpu3.dcache.mem_side::system.l2.cpu_side     18271488                       # Cumulative packet size per connected master and slave (bytes)
system.tol2bus.pkt_size::total               73486336                       # Cumulative packet size per connected master and slave (bytes)
system.tol2bus.snoops                         1538346                       # Total snoops (count)
system.tol2bus.snoop_fanout::samples          2686579                       # Request fanout histogram
system.tol2bus.snoop_fanout::mean                   7                       # Request fanout histogram
system.tol2bus.snoop_fanout::stdev                  0                       # Request fanout histogram
system.tol2bus.snoop_fanout::underflows             0      0.00%      0.00% # Request fanout histogram
system.tol2bus.snoop_fanout::0                      0      0.00%      0.00% # Request fanout histogram
system.tol2bus.snoop_fanout::1                      0      0.00%      0.00% # Request fanout histogram
system.tol2bus.snoop_fanout::2                      0      0.00%      0.00% # Request fanout histogram
system.tol2bus.snoop_fanout::3                      0      0.00%      0.00% # Request fanout histogram
system.tol2bus.snoop_fanout::4                      0      0.00%      0.00% # Request fanout histogram
system.tol2bus.snoop_fanout::5                      0      0.00%      0.00% # Request fanout histogram
system.tol2bus.snoop_fanout::6                      0      0.00%      0.00% # Request fanout histogram
system.tol2bus.snoop_fanout::7                2686579    100.00%    100.00% # Request fanout histogram
system.tol2bus.snoop_fanout::8                      0      0.00%    100.00% # Request fanout histogram
system.tol2bus.snoop_fanout::overflows              0      0.00%    100.00% # Request fanout histogram
system.tol2bus.snoop_fanout::min_value              7                       # Request fanout histogram
system.tol2bus.snoop_fanout::max_value              7                       # Request fanout histogram
system.tol2bus.snoop_fanout::total            2686579                       # Request fanout histogram
system.tol2bus.reqLayer0.occupancy         1887961500                       # Layer occupancy (ticks)
system.tol2bus.reqLayer0.utilization             90.5                       # Layer utilization (%)
system.tol2bus.respLayer0.occupancy           1021239                       # Layer occupancy (ticks)
system.tol2bus.respLayer0.utilization             0.0                       # Layer utilization (%)
system.tol2bus.respLayer1.occupancy         853179990                       # Layer occupancy (ticks)
system.tol2bus.respLayer1.utilization            40.9                       # Layer utilization (%)
system.tol2bus.respLayer4.occupancy             81477                       # Layer occupancy (ticks)
system.tol2bus.respLayer4.utilization             0.0                       # Layer utilization (%)
system.tol2bus.respLayer5.occupancy         845436780                       # Layer occupancy (ticks)
system.tol2bus.respLayer5.utilization            40.5                       # Layer utilization (%)
system.tol2bus.respLayer8.occupancy             83970                       # Layer occupancy (ticks)
system.tol2bus.respLayer8.utilization             0.0                       # Layer utilization (%)
system.tol2bus.respLayer9.occupancy         845416605                       # Layer occupancy (ticks)
system.tol2bus.respLayer9.utilization            40.5                       # Layer utilization (%)
system.tol2bus.respLayer12.occupancy            81728                       # Layer occupancy (ticks)
system.tol2bus.respLayer12.utilization            0.0                       # Layer utilization (%)
system.tol2bus.respLayer13.occupancy        845387728                       # Layer occupancy (ticks)
system.tol2bus.respLayer13.utilization           40.5                       # Layer utilization (%)

---------- End Simulation Statistics   ----------
