
---------- Begin Simulation Statistics ----------
sim_seconds                                  0.001495                       # Number of seconds simulated
sim_ticks                                  1494876500                       # Number of ticks simulated
final_tick                                 1494876500                       # Number of ticks from beginning of simulation (restored from checkpoints and never reset)
sim_freq                                 1000000000000                       # Frequency of simulated ticks
host_inst_rate                                 117115                       # Simulator instruction rate (inst/s)
host_op_rate                                   117899                       # Simulator op (including micro ops) rate (op/s)
host_tick_rate                                4474039                       # Simulator tick rate (ticks/s)
host_mem_usage                                 741152                       # Number of bytes of host memory used
host_seconds                                   334.12                       # Real time elapsed on the host
sim_insts                                    39130667                       # Number of instructions simulated
sim_ops                                      39392838                       # Number of ops (including micro ops) simulated
system.voltage_domain.voltage                       1                       # Voltage in Volts
system.clk_domain.clock                          1000                       # Clock period in ticks
system.mem_ctrls.bytes_read::cpu00.inst         31872                       # Number of bytes read from this memory
system.mem_ctrls.bytes_read::cpu00.data        289728                       # Number of bytes read from this memory
system.mem_ctrls.bytes_read::cpu01.inst          1216                       # Number of bytes read from this memory
system.mem_ctrls.bytes_read::cpu01.data          9088                       # Number of bytes read from this memory
system.mem_ctrls.bytes_read::cpu02.data          8512                       # Number of bytes read from this memory
system.mem_ctrls.bytes_read::cpu03.inst           448                       # Number of bytes read from this memory
system.mem_ctrls.bytes_read::cpu03.data          8512                       # Number of bytes read from this memory
system.mem_ctrls.bytes_read::cpu04.inst            64                       # Number of bytes read from this memory
system.mem_ctrls.bytes_read::cpu04.data          8448                       # Number of bytes read from this memory
system.mem_ctrls.bytes_read::cpu05.inst           256                       # Number of bytes read from this memory
system.mem_ctrls.bytes_read::cpu05.data          8512                       # Number of bytes read from this memory
system.mem_ctrls.bytes_read::cpu06.data          8448                       # Number of bytes read from this memory
system.mem_ctrls.bytes_read::cpu07.inst           192                       # Number of bytes read from this memory
system.mem_ctrls.bytes_read::cpu07.data          8576                       # Number of bytes read from this memory
system.mem_ctrls.bytes_read::cpu08.data          8448                       # Number of bytes read from this memory
system.mem_ctrls.bytes_read::cpu09.inst            64                       # Number of bytes read from this memory
system.mem_ctrls.bytes_read::cpu09.data          8576                       # Number of bytes read from this memory
system.mem_ctrls.bytes_read::cpu10.inst           128                       # Number of bytes read from this memory
system.mem_ctrls.bytes_read::cpu10.data          8448                       # Number of bytes read from this memory
system.mem_ctrls.bytes_read::cpu11.inst            64                       # Number of bytes read from this memory
system.mem_ctrls.bytes_read::cpu11.data          8448                       # Number of bytes read from this memory
system.mem_ctrls.bytes_read::cpu12.inst            64                       # Number of bytes read from this memory
system.mem_ctrls.bytes_read::cpu12.data          8448                       # Number of bytes read from this memory
system.mem_ctrls.bytes_read::cpu13.data          8448                       # Number of bytes read from this memory
system.mem_ctrls.bytes_read::cpu14.inst           128                       # Number of bytes read from this memory
system.mem_ctrls.bytes_read::cpu14.data          8512                       # Number of bytes read from this memory
system.mem_ctrls.bytes_read::cpu15.inst            64                       # Number of bytes read from this memory
system.mem_ctrls.bytes_read::cpu15.data          8512                       # Number of bytes read from this memory
system.mem_ctrls.bytes_read::total             452224                       # Number of bytes read from this memory
system.mem_ctrls.bytes_inst_read::cpu00.inst        31872                       # Number of instructions bytes read from this memory
system.mem_ctrls.bytes_inst_read::cpu01.inst         1216                       # Number of instructions bytes read from this memory
system.mem_ctrls.bytes_inst_read::cpu03.inst          448                       # Number of instructions bytes read from this memory
system.mem_ctrls.bytes_inst_read::cpu04.inst           64                       # Number of instructions bytes read from this memory
system.mem_ctrls.bytes_inst_read::cpu05.inst          256                       # Number of instructions bytes read from this memory
system.mem_ctrls.bytes_inst_read::cpu07.inst          192                       # Number of instructions bytes read from this memory
system.mem_ctrls.bytes_inst_read::cpu09.inst           64                       # Number of instructions bytes read from this memory
system.mem_ctrls.bytes_inst_read::cpu10.inst          128                       # Number of instructions bytes read from this memory
system.mem_ctrls.bytes_inst_read::cpu11.inst           64                       # Number of instructions bytes read from this memory
system.mem_ctrls.bytes_inst_read::cpu12.inst           64                       # Number of instructions bytes read from this memory
system.mem_ctrls.bytes_inst_read::cpu14.inst          128                       # Number of instructions bytes read from this memory
system.mem_ctrls.bytes_inst_read::cpu15.inst           64                       # Number of instructions bytes read from this memory
system.mem_ctrls.bytes_inst_read::total         34560                       # Number of instructions bytes read from this memory
system.mem_ctrls.bytes_written::writebacks         1024                       # Number of bytes written to this memory
system.mem_ctrls.bytes_written::total            1024                       # Number of bytes written to this memory
system.mem_ctrls.num_reads::cpu00.inst            498                       # Number of read requests responded to by this memory
system.mem_ctrls.num_reads::cpu00.data           4527                       # Number of read requests responded to by this memory
system.mem_ctrls.num_reads::cpu01.inst             19                       # Number of read requests responded to by this memory
system.mem_ctrls.num_reads::cpu01.data            142                       # Number of read requests responded to by this memory
system.mem_ctrls.num_reads::cpu02.data            133                       # Number of read requests responded to by this memory
system.mem_ctrls.num_reads::cpu03.inst              7                       # Number of read requests responded to by this memory
system.mem_ctrls.num_reads::cpu03.data            133                       # Number of read requests responded to by this memory
system.mem_ctrls.num_reads::cpu04.inst              1                       # Number of read requests responded to by this memory
system.mem_ctrls.num_reads::cpu04.data            132                       # Number of read requests responded to by this memory
system.mem_ctrls.num_reads::cpu05.inst              4                       # Number of read requests responded to by this memory
system.mem_ctrls.num_reads::cpu05.data            133                       # Number of read requests responded to by this memory
system.mem_ctrls.num_reads::cpu06.data            132                       # Number of read requests responded to by this memory
system.mem_ctrls.num_reads::cpu07.inst              3                       # Number of read requests responded to by this memory
system.mem_ctrls.num_reads::cpu07.data            134                       # Number of read requests responded to by this memory
system.mem_ctrls.num_reads::cpu08.data            132                       # Number of read requests responded to by this memory
system.mem_ctrls.num_reads::cpu09.inst              1                       # Number of read requests responded to by this memory
system.mem_ctrls.num_reads::cpu09.data            134                       # Number of read requests responded to by this memory
system.mem_ctrls.num_reads::cpu10.inst              2                       # Number of read requests responded to by this memory
system.mem_ctrls.num_reads::cpu10.data            132                       # Number of read requests responded to by this memory
system.mem_ctrls.num_reads::cpu11.inst              1                       # Number of read requests responded to by this memory
system.mem_ctrls.num_reads::cpu11.data            132                       # Number of read requests responded to by this memory
system.mem_ctrls.num_reads::cpu12.inst              1                       # Number of read requests responded to by this memory
system.mem_ctrls.num_reads::cpu12.data            132                       # Number of read requests responded to by this memory
system.mem_ctrls.num_reads::cpu13.data            132                       # Number of read requests responded to by this memory
system.mem_ctrls.num_reads::cpu14.inst              2                       # Number of read requests responded to by this memory
system.mem_ctrls.num_reads::cpu14.data            133                       # Number of read requests responded to by this memory
system.mem_ctrls.num_reads::cpu15.inst              1                       # Number of read requests responded to by this memory
system.mem_ctrls.num_reads::cpu15.data            133                       # Number of read requests responded to by this memory
system.mem_ctrls.num_reads::total                7066                       # Number of read requests responded to by this memory
system.mem_ctrls.num_writes::writebacks            16                       # Number of write requests responded to by this memory
system.mem_ctrls.num_writes::total                 16                       # Number of write requests responded to by this memory
system.mem_ctrls.bw_read::cpu00.inst         21320825                       # Total read bandwidth from this memory (bytes/s)
system.mem_ctrls.bw_read::cpu00.data        193814004                       # Total read bandwidth from this memory (bytes/s)
system.mem_ctrls.bw_read::cpu01.inst           813445                       # Total read bandwidth from this memory (bytes/s)
system.mem_ctrls.bw_read::cpu01.data          6079432                       # Total read bandwidth from this memory (bytes/s)
system.mem_ctrls.bw_read::cpu02.data          5694116                       # Total read bandwidth from this memory (bytes/s)
system.mem_ctrls.bw_read::cpu03.inst           299690                       # Total read bandwidth from this memory (bytes/s)
system.mem_ctrls.bw_read::cpu03.data          5694116                       # Total read bandwidth from this memory (bytes/s)
system.mem_ctrls.bw_read::cpu04.inst            42813                       # Total read bandwidth from this memory (bytes/s)
system.mem_ctrls.bw_read::cpu04.data          5651303                       # Total read bandwidth from this memory (bytes/s)
system.mem_ctrls.bw_read::cpu05.inst           171252                       # Total read bandwidth from this memory (bytes/s)
system.mem_ctrls.bw_read::cpu05.data          5694116                       # Total read bandwidth from this memory (bytes/s)
system.mem_ctrls.bw_read::cpu06.data          5651303                       # Total read bandwidth from this memory (bytes/s)
system.mem_ctrls.bw_read::cpu07.inst           128439                       # Total read bandwidth from this memory (bytes/s)
system.mem_ctrls.bw_read::cpu07.data          5736929                       # Total read bandwidth from this memory (bytes/s)
system.mem_ctrls.bw_read::cpu08.data          5651303                       # Total read bandwidth from this memory (bytes/s)
system.mem_ctrls.bw_read::cpu09.inst            42813                       # Total read bandwidth from this memory (bytes/s)
system.mem_ctrls.bw_read::cpu09.data          5736929                       # Total read bandwidth from this memory (bytes/s)
system.mem_ctrls.bw_read::cpu10.inst            85626                       # Total read bandwidth from this memory (bytes/s)
system.mem_ctrls.bw_read::cpu10.data          5651303                       # Total read bandwidth from this memory (bytes/s)
system.mem_ctrls.bw_read::cpu11.inst            42813                       # Total read bandwidth from this memory (bytes/s)
system.mem_ctrls.bw_read::cpu11.data          5651303                       # Total read bandwidth from this memory (bytes/s)
system.mem_ctrls.bw_read::cpu12.inst            42813                       # Total read bandwidth from this memory (bytes/s)
system.mem_ctrls.bw_read::cpu12.data          5651303                       # Total read bandwidth from this memory (bytes/s)
system.mem_ctrls.bw_read::cpu13.data          5651303                       # Total read bandwidth from this memory (bytes/s)
system.mem_ctrls.bw_read::cpu14.inst            85626                       # Total read bandwidth from this memory (bytes/s)
system.mem_ctrls.bw_read::cpu14.data          5694116                       # Total read bandwidth from this memory (bytes/s)
system.mem_ctrls.bw_read::cpu15.inst            42813                       # Total read bandwidth from this memory (bytes/s)
system.mem_ctrls.bw_read::cpu15.data          5694116                       # Total read bandwidth from this memory (bytes/s)
system.mem_ctrls.bw_read::total             302515960                       # Total read bandwidth from this memory (bytes/s)
system.mem_ctrls.bw_inst_read::cpu00.inst     21320825                       # Instruction read bandwidth from this memory (bytes/s)
system.mem_ctrls.bw_inst_read::cpu01.inst       813445                       # Instruction read bandwidth from this memory (bytes/s)
system.mem_ctrls.bw_inst_read::cpu03.inst       299690                       # Instruction read bandwidth from this memory (bytes/s)
system.mem_ctrls.bw_inst_read::cpu04.inst        42813                       # Instruction read bandwidth from this memory (bytes/s)
system.mem_ctrls.bw_inst_read::cpu05.inst       171252                       # Instruction read bandwidth from this memory (bytes/s)
system.mem_ctrls.bw_inst_read::cpu07.inst       128439                       # Instruction read bandwidth from this memory (bytes/s)
system.mem_ctrls.bw_inst_read::cpu09.inst        42813                       # Instruction read bandwidth from this memory (bytes/s)
system.mem_ctrls.bw_inst_read::cpu10.inst        85626                       # Instruction read bandwidth from this memory (bytes/s)
system.mem_ctrls.bw_inst_read::cpu11.inst        42813                       # Instruction read bandwidth from this memory (bytes/s)
system.mem_ctrls.bw_inst_read::cpu12.inst        42813                       # Instruction read bandwidth from this memory (bytes/s)
system.mem_ctrls.bw_inst_read::cpu14.inst        85626                       # Instruction read bandwidth from this memory (bytes/s)
system.mem_ctrls.bw_inst_read::cpu15.inst        42813                       # Instruction read bandwidth from this memory (bytes/s)
system.mem_ctrls.bw_inst_read::total         23118967                       # Instruction read bandwidth from this memory (bytes/s)
system.mem_ctrls.bw_write::writebacks          685006                       # Write bandwidth from this memory (bytes/s)
system.mem_ctrls.bw_write::total               685006                       # Write bandwidth from this memory (bytes/s)
system.mem_ctrls.bw_total::writebacks          685006                       # Total bandwidth to/from this memory (bytes/s)
system.mem_ctrls.bw_total::cpu00.inst        21320825                       # Total bandwidth to/from this memory (bytes/s)
system.mem_ctrls.bw_total::cpu00.data       193814004                       # Total bandwidth to/from this memory (bytes/s)
system.mem_ctrls.bw_total::cpu01.inst          813445                       # Total bandwidth to/from this memory (bytes/s)
system.mem_ctrls.bw_total::cpu01.data         6079432                       # Total bandwidth to/from this memory (bytes/s)
system.mem_ctrls.bw_total::cpu02.data         5694116                       # Total bandwidth to/from this memory (bytes/s)
system.mem_ctrls.bw_total::cpu03.inst          299690                       # Total bandwidth to/from this memory (bytes/s)
system.mem_ctrls.bw_total::cpu03.data         5694116                       # Total bandwidth to/from this memory (bytes/s)
system.mem_ctrls.bw_total::cpu04.inst           42813                       # Total bandwidth to/from this memory (bytes/s)
system.mem_ctrls.bw_total::cpu04.data         5651303                       # Total bandwidth to/from this memory (bytes/s)
system.mem_ctrls.bw_total::cpu05.inst          171252                       # Total bandwidth to/from this memory (bytes/s)
system.mem_ctrls.bw_total::cpu05.data         5694116                       # Total bandwidth to/from this memory (bytes/s)
system.mem_ctrls.bw_total::cpu06.data         5651303                       # Total bandwidth to/from this memory (bytes/s)
system.mem_ctrls.bw_total::cpu07.inst          128439                       # Total bandwidth to/from this memory (bytes/s)
system.mem_ctrls.bw_total::cpu07.data         5736929                       # Total bandwidth to/from this memory (bytes/s)
system.mem_ctrls.bw_total::cpu08.data         5651303                       # Total bandwidth to/from this memory (bytes/s)
system.mem_ctrls.bw_total::cpu09.inst           42813                       # Total bandwidth to/from this memory (bytes/s)
system.mem_ctrls.bw_total::cpu09.data         5736929                       # Total bandwidth to/from this memory (bytes/s)
system.mem_ctrls.bw_total::cpu10.inst           85626                       # Total bandwidth to/from this memory (bytes/s)
system.mem_ctrls.bw_total::cpu10.data         5651303                       # Total bandwidth to/from this memory (bytes/s)
system.mem_ctrls.bw_total::cpu11.inst           42813                       # Total bandwidth to/from this memory (bytes/s)
system.mem_ctrls.bw_total::cpu11.data         5651303                       # Total bandwidth to/from this memory (bytes/s)
system.mem_ctrls.bw_total::cpu12.inst           42813                       # Total bandwidth to/from this memory (bytes/s)
system.mem_ctrls.bw_total::cpu12.data         5651303                       # Total bandwidth to/from this memory (bytes/s)
system.mem_ctrls.bw_total::cpu13.data         5651303                       # Total bandwidth to/from this memory (bytes/s)
system.mem_ctrls.bw_total::cpu14.inst           85626                       # Total bandwidth to/from this memory (bytes/s)
system.mem_ctrls.bw_total::cpu14.data         5694116                       # Total bandwidth to/from this memory (bytes/s)
system.mem_ctrls.bw_total::cpu15.inst           42813                       # Total bandwidth to/from this memory (bytes/s)
system.mem_ctrls.bw_total::cpu15.data         5694116                       # Total bandwidth to/from this memory (bytes/s)
system.mem_ctrls.bw_total::total            303200967                       # Total bandwidth to/from this memory (bytes/s)
system.mem_ctrls.readReqs                        7066                       # Number of read requests accepted
system.mem_ctrls.writeReqs                         16                       # Number of write requests accepted
system.mem_ctrls.readBursts                      7066                       # Number of DRAM read bursts, including those serviced by the write queue
system.mem_ctrls.writeBursts                       16                       # Number of DRAM write bursts, including those merged in the write queue
system.mem_ctrls.bytesReadDRAM                 451456                       # Total number of bytes read from DRAM
system.mem_ctrls.bytesReadWrQ                     768                       # Total number of bytes read from write queue
system.mem_ctrls.bytesWritten                       0                       # Total number of bytes written to DRAM
system.mem_ctrls.bytesReadSys                  452224                       # Total read bytes from the system interface side
system.mem_ctrls.bytesWrittenSys                 1024                       # Total written bytes from the system interface side
system.mem_ctrls.servicedByWrQ                     12                       # Number of DRAM read bursts serviced by the write queue
system.mem_ctrls.mergedWrBursts                     0                       # Number of DRAM write bursts merged with an existing one
system.mem_ctrls.neitherReadNorWriteReqs            8                       # Number of requests that are neither read nor write
system.mem_ctrls.perBankRdBursts::0               506                       # Per bank write bursts
system.mem_ctrls.perBankRdBursts::1               519                       # Per bank write bursts
system.mem_ctrls.perBankRdBursts::2               518                       # Per bank write bursts
system.mem_ctrls.perBankRdBursts::3               486                       # Per bank write bursts
system.mem_ctrls.perBankRdBursts::4               414                       # Per bank write bursts
system.mem_ctrls.perBankRdBursts::5               492                       # Per bank write bursts
system.mem_ctrls.perBankRdBursts::6               465                       # Per bank write bursts
system.mem_ctrls.perBankRdBursts::7               415                       # Per bank write bursts
system.mem_ctrls.perBankRdBursts::8               399                       # Per bank write bursts
system.mem_ctrls.perBankRdBursts::9               394                       # Per bank write bursts
system.mem_ctrls.perBankRdBursts::10              384                       # Per bank write bursts
system.mem_ctrls.perBankRdBursts::11              396                       # Per bank write bursts
system.mem_ctrls.perBankRdBursts::12              390                       # Per bank write bursts
system.mem_ctrls.perBankRdBursts::13              417                       # Per bank write bursts
system.mem_ctrls.perBankRdBursts::14              422                       # Per bank write bursts
system.mem_ctrls.perBankRdBursts::15              437                       # Per bank write bursts
system.mem_ctrls.perBankWrBursts::0                 0                       # Per bank write bursts
system.mem_ctrls.perBankWrBursts::1                 0                       # Per bank write bursts
system.mem_ctrls.perBankWrBursts::2                 0                       # Per bank write bursts
system.mem_ctrls.perBankWrBursts::3                 0                       # Per bank write bursts
system.mem_ctrls.perBankWrBursts::4                 0                       # Per bank write bursts
system.mem_ctrls.perBankWrBursts::5                 0                       # Per bank write bursts
system.mem_ctrls.perBankWrBursts::6                 0                       # Per bank write bursts
system.mem_ctrls.perBankWrBursts::7                 0                       # Per bank write bursts
system.mem_ctrls.perBankWrBursts::8                 0                       # Per bank write bursts
system.mem_ctrls.perBankWrBursts::9                 0                       # Per bank write bursts
system.mem_ctrls.perBankWrBursts::10                0                       # Per bank write bursts
system.mem_ctrls.perBankWrBursts::11                0                       # Per bank write bursts
system.mem_ctrls.perBankWrBursts::12                0                       # Per bank write bursts
system.mem_ctrls.perBankWrBursts::13                0                       # Per bank write bursts
system.mem_ctrls.perBankWrBursts::14                0                       # Per bank write bursts
system.mem_ctrls.perBankWrBursts::15                0                       # Per bank write bursts
system.mem_ctrls.numRdRetry                         0                       # Number of times read queue was full causing retry
system.mem_ctrls.numWrRetry                         0                       # Number of times write queue was full causing retry
system.mem_ctrls.totGap                    1494837000                       # Total gap between requests
system.mem_ctrls.readPktSize::0                     0                       # Read request sizes (log2)
system.mem_ctrls.readPktSize::1                     0                       # Read request sizes (log2)
system.mem_ctrls.readPktSize::2                     0                       # Read request sizes (log2)
system.mem_ctrls.readPktSize::3                     0                       # Read request sizes (log2)
system.mem_ctrls.readPktSize::4                     0                       # Read request sizes (log2)
system.mem_ctrls.readPktSize::5                     0                       # Read request sizes (log2)
system.mem_ctrls.readPktSize::6                  7066                       # Read request sizes (log2)
system.mem_ctrls.writePktSize::0                    0                       # Write request sizes (log2)
system.mem_ctrls.writePktSize::1                    0                       # Write request sizes (log2)
system.mem_ctrls.writePktSize::2                    0                       # Write request sizes (log2)
system.mem_ctrls.writePktSize::3                    0                       # Write request sizes (log2)
system.mem_ctrls.writePktSize::4                    0                       # Write request sizes (log2)
system.mem_ctrls.writePktSize::5                    0                       # Write request sizes (log2)
system.mem_ctrls.writePktSize::6                   16                       # Write request sizes (log2)
system.mem_ctrls.rdQLenPdf::0                    3702                       # What read queue length does an incoming req see
system.mem_ctrls.rdQLenPdf::1                    2833                       # What read queue length does an incoming req see
system.mem_ctrls.rdQLenPdf::2                     356                       # What read queue length does an incoming req see
system.mem_ctrls.rdQLenPdf::3                      95                       # What read queue length does an incoming req see
system.mem_ctrls.rdQLenPdf::4                      28                       # What read queue length does an incoming req see
system.mem_ctrls.rdQLenPdf::5                      12                       # What read queue length does an incoming req see
system.mem_ctrls.rdQLenPdf::6                      11                       # What read queue length does an incoming req see
system.mem_ctrls.rdQLenPdf::7                       7                       # What read queue length does an incoming req see
system.mem_ctrls.rdQLenPdf::8                       3                       # What read queue length does an incoming req see
system.mem_ctrls.rdQLenPdf::9                       1                       # What read queue length does an incoming req see
system.mem_ctrls.rdQLenPdf::10                      1                       # What read queue length does an incoming req see
system.mem_ctrls.rdQLenPdf::11                      2                       # What read queue length does an incoming req see
system.mem_ctrls.rdQLenPdf::12                      1                       # What read queue length does an incoming req see
system.mem_ctrls.rdQLenPdf::13                      1                       # What read queue length does an incoming req see
system.mem_ctrls.rdQLenPdf::14                      1                       # What read queue length does an incoming req see
system.mem_ctrls.rdQLenPdf::15                      0                       # What read queue length does an incoming req see
system.mem_ctrls.rdQLenPdf::16                      0                       # What read queue length does an incoming req see
system.mem_ctrls.rdQLenPdf::17                      0                       # What read queue length does an incoming req see
system.mem_ctrls.rdQLenPdf::18                      0                       # What read queue length does an incoming req see
system.mem_ctrls.rdQLenPdf::19                      0                       # What read queue length does an incoming req see
system.mem_ctrls.rdQLenPdf::20                      0                       # What read queue length does an incoming req see
system.mem_ctrls.rdQLenPdf::21                      0                       # What read queue length does an incoming req see
system.mem_ctrls.rdQLenPdf::22                      0                       # What read queue length does an incoming req see
system.mem_ctrls.rdQLenPdf::23                      0                       # What read queue length does an incoming req see
system.mem_ctrls.rdQLenPdf::24                      0                       # What read queue length does an incoming req see
system.mem_ctrls.rdQLenPdf::25                      0                       # What read queue length does an incoming req see
system.mem_ctrls.rdQLenPdf::26                      0                       # What read queue length does an incoming req see
system.mem_ctrls.rdQLenPdf::27                      0                       # What read queue length does an incoming req see
system.mem_ctrls.rdQLenPdf::28                      0                       # What read queue length does an incoming req see
system.mem_ctrls.rdQLenPdf::29                      0                       # What read queue length does an incoming req see
system.mem_ctrls.rdQLenPdf::30                      0                       # What read queue length does an incoming req see
system.mem_ctrls.rdQLenPdf::31                      0                       # What read queue length does an incoming req see
system.mem_ctrls.wrQLenPdf::0                       1                       # What write queue length does an incoming req see
system.mem_ctrls.wrQLenPdf::1                       1                       # What write queue length does an incoming req see
system.mem_ctrls.wrQLenPdf::2                       1                       # What write queue length does an incoming req see
system.mem_ctrls.wrQLenPdf::3                       1                       # What write queue length does an incoming req see
system.mem_ctrls.wrQLenPdf::4                       1                       # What write queue length does an incoming req see
system.mem_ctrls.wrQLenPdf::5                       1                       # What write queue length does an incoming req see
system.mem_ctrls.wrQLenPdf::6                       1                       # What write queue length does an incoming req see
system.mem_ctrls.wrQLenPdf::7                       1                       # What write queue length does an incoming req see
system.mem_ctrls.wrQLenPdf::8                       1                       # What write queue length does an incoming req see
system.mem_ctrls.wrQLenPdf::9                       1                       # What write queue length does an incoming req see
system.mem_ctrls.wrQLenPdf::10                      1                       # What write queue length does an incoming req see
system.mem_ctrls.wrQLenPdf::11                      1                       # What write queue length does an incoming req see
system.mem_ctrls.wrQLenPdf::12                      1                       # What write queue length does an incoming req see
system.mem_ctrls.wrQLenPdf::13                      1                       # What write queue length does an incoming req see
system.mem_ctrls.wrQLenPdf::14                      1                       # What write queue length does an incoming req see
system.mem_ctrls.wrQLenPdf::15                      1                       # What write queue length does an incoming req see
system.mem_ctrls.wrQLenPdf::16                      0                       # What write queue length does an incoming req see
system.mem_ctrls.wrQLenPdf::17                      0                       # What write queue length does an incoming req see
system.mem_ctrls.wrQLenPdf::18                      0                       # What write queue length does an incoming req see
system.mem_ctrls.wrQLenPdf::19                      0                       # What write queue length does an incoming req see
system.mem_ctrls.wrQLenPdf::20                      0                       # What write queue length does an incoming req see
system.mem_ctrls.wrQLenPdf::21                      0                       # What write queue length does an incoming req see
system.mem_ctrls.wrQLenPdf::22                      0                       # What write queue length does an incoming req see
system.mem_ctrls.wrQLenPdf::23                      0                       # What write queue length does an incoming req see
system.mem_ctrls.wrQLenPdf::24                      0                       # What write queue length does an incoming req see
system.mem_ctrls.wrQLenPdf::25                      0                       # What write queue length does an incoming req see
system.mem_ctrls.wrQLenPdf::26                      0                       # What write queue length does an incoming req see
system.mem_ctrls.wrQLenPdf::27                      0                       # What write queue length does an incoming req see
system.mem_ctrls.wrQLenPdf::28                      0                       # What write queue length does an incoming req see
system.mem_ctrls.wrQLenPdf::29                      0                       # What write queue length does an incoming req see
system.mem_ctrls.wrQLenPdf::30                      0                       # What write queue length does an incoming req see
system.mem_ctrls.wrQLenPdf::31                      0                       # What write queue length does an incoming req see
system.mem_ctrls.wrQLenPdf::32                      0                       # What write queue length does an incoming req see
system.mem_ctrls.wrQLenPdf::33                      0                       # What write queue length does an incoming req see
system.mem_ctrls.wrQLenPdf::34                      0                       # What write queue length does an incoming req see
system.mem_ctrls.wrQLenPdf::35                      0                       # What write queue length does an incoming req see
system.mem_ctrls.wrQLenPdf::36                      0                       # What write queue length does an incoming req see
system.mem_ctrls.wrQLenPdf::37                      0                       # What write queue length does an incoming req see
system.mem_ctrls.wrQLenPdf::38                      0                       # What write queue length does an incoming req see
system.mem_ctrls.wrQLenPdf::39                      0                       # What write queue length does an incoming req see
system.mem_ctrls.wrQLenPdf::40                      0                       # What write queue length does an incoming req see
system.mem_ctrls.wrQLenPdf::41                      0                       # What write queue length does an incoming req see
system.mem_ctrls.wrQLenPdf::42                      0                       # What write queue length does an incoming req see
system.mem_ctrls.wrQLenPdf::43                      0                       # What write queue length does an incoming req see
system.mem_ctrls.wrQLenPdf::44                      0                       # What write queue length does an incoming req see
system.mem_ctrls.wrQLenPdf::45                      0                       # What write queue length does an incoming req see
system.mem_ctrls.wrQLenPdf::46                      0                       # What write queue length does an incoming req see
system.mem_ctrls.wrQLenPdf::47                      0                       # What write queue length does an incoming req see
system.mem_ctrls.wrQLenPdf::48                      0                       # What write queue length does an incoming req see
system.mem_ctrls.wrQLenPdf::49                      0                       # What write queue length does an incoming req see
system.mem_ctrls.wrQLenPdf::50                      0                       # What write queue length does an incoming req see
system.mem_ctrls.wrQLenPdf::51                      0                       # What write queue length does an incoming req see
system.mem_ctrls.wrQLenPdf::52                      0                       # What write queue length does an incoming req see
system.mem_ctrls.wrQLenPdf::53                      0                       # What write queue length does an incoming req see
system.mem_ctrls.wrQLenPdf::54                      0                       # What write queue length does an incoming req see
system.mem_ctrls.wrQLenPdf::55                      0                       # What write queue length does an incoming req see
system.mem_ctrls.wrQLenPdf::56                      0                       # What write queue length does an incoming req see
system.mem_ctrls.wrQLenPdf::57                      0                       # What write queue length does an incoming req see
system.mem_ctrls.wrQLenPdf::58                      0                       # What write queue length does an incoming req see
system.mem_ctrls.wrQLenPdf::59                      0                       # What write queue length does an incoming req see
system.mem_ctrls.wrQLenPdf::60                      0                       # What write queue length does an incoming req see
system.mem_ctrls.wrQLenPdf::61                      0                       # What write queue length does an incoming req see
system.mem_ctrls.wrQLenPdf::62                      0                       # What write queue length does an incoming req see
system.mem_ctrls.wrQLenPdf::63                      0                       # What write queue length does an incoming req see
system.mem_ctrls.bytesPerActivate::samples         2584                       # Bytes accessed per row activation
system.mem_ctrls.bytesPerActivate::mean    174.043344                       # Bytes accessed per row activation
system.mem_ctrls.bytesPerActivate::gmean    91.539943                       # Bytes accessed per row activation
system.mem_ctrls.bytesPerActivate::stdev   292.203056                       # Bytes accessed per row activation
system.mem_ctrls.bytesPerActivate::0-127         2173     84.09%     84.09% # Bytes accessed per row activation
system.mem_ctrls.bytesPerActivate::128-255           72      2.79%     86.88% # Bytes accessed per row activation
system.mem_ctrls.bytesPerActivate::256-383           33      1.28%     88.16% # Bytes accessed per row activation
system.mem_ctrls.bytesPerActivate::384-511           14      0.54%     88.70% # Bytes accessed per row activation
system.mem_ctrls.bytesPerActivate::512-639           11      0.43%     89.13% # Bytes accessed per row activation
system.mem_ctrls.bytesPerActivate::640-767           14      0.54%     89.67% # Bytes accessed per row activation
system.mem_ctrls.bytesPerActivate::768-895           10      0.39%     90.05% # Bytes accessed per row activation
system.mem_ctrls.bytesPerActivate::896-1023            7      0.27%     90.33% # Bytes accessed per row activation
system.mem_ctrls.bytesPerActivate::1024-1151          250      9.67%    100.00% # Bytes accessed per row activation
system.mem_ctrls.bytesPerActivate::total         2584                       # Bytes accessed per row activation
system.mem_ctrls.totQLat                     74457750                       # Total ticks spent queuing
system.mem_ctrls.totMemAccLat               206720250                       # Total ticks spent from burst creation until serviced by the DRAM
system.mem_ctrls.totBusLat                   35270000                       # Total ticks spent in databus transfers
system.mem_ctrls.avgQLat                     10555.39                       # Average queueing delay per DRAM burst
system.mem_ctrls.avgBusLat                    5000.00                       # Average bus latency per DRAM burst
system.mem_ctrls.avgMemAccLat                29305.39                       # Average memory access latency per DRAM burst
system.mem_ctrls.avgRdBW                       302.00                       # Average DRAM read bandwidth in MiByte/s
system.mem_ctrls.avgWrBW                         0.00                       # Average achieved write bandwidth in MiByte/s
system.mem_ctrls.avgRdBWSys                    302.52                       # Average system read bandwidth in MiByte/s
system.mem_ctrls.avgWrBWSys                      0.69                       # Average system write bandwidth in MiByte/s
system.mem_ctrls.peakBW                      12800.00                       # Theoretical peak bandwidth in MiByte/s
system.mem_ctrls.busUtil                         2.36                       # Data bus utilization in percentage
system.mem_ctrls.busUtilRead                     2.36                       # Data bus utilization in percentage for reads
system.mem_ctrls.busUtilWrite                    0.00                       # Data bus utilization in percentage for writes
system.mem_ctrls.avgRdQLen                       1.37                       # Average read queue length when enqueuing
system.mem_ctrls.avgWrQLen                       9.45                       # Average write queue length when enqueuing
system.mem_ctrls.readRowHits                     4459                       # Number of row buffer hits during reads
system.mem_ctrls.writeRowHits                       0                       # Number of row buffer hits during writes
system.mem_ctrls.readRowHitRate                 63.21                       # Row buffer hit rate for reads
system.mem_ctrls.writeRowHitRate                 0.00                       # Row buffer hit rate for writes
system.mem_ctrls.avgGap                     211075.54                       # Average gap between requests
system.mem_ctrls.pageHitRate                    63.07                       # Row buffer hit rate, read and write combined
system.mem_ctrls_0.actEnergy                 10508400                       # Energy for activate commands per rank (pJ)
system.mem_ctrls_0.preEnergy                  5733750                       # Energy for precharge commands per rank (pJ)
system.mem_ctrls_0.readEnergy                29624400                       # Energy for read commands per rank (pJ)
system.mem_ctrls_0.writeEnergy                      0                       # Energy for write commands per rank (pJ)
system.mem_ctrls_0.refreshEnergy             97134960                       # Energy for refresh commands per rank (pJ)
system.mem_ctrls_0.actBackEnergy            564157215                       # Energy for active background per rank (pJ)
system.mem_ctrls_0.preBackEnergy            397585500                       # Energy for precharge background per rank (pJ)
system.mem_ctrls_0.totalEnergy             1104744225                       # Total energy per rank (pJ)
system.mem_ctrls_0.averagePower            742.718272                       # Core power per rank (mW)
system.mem_ctrls_0.memoryStateTime::IDLE    657670750                       # Time in different power states
system.mem_ctrls_0.memoryStateTime::REF      49660000                       # Time in different power states
system.mem_ctrls_0.memoryStateTime::PRE_PDN            0                       # Time in different power states
system.mem_ctrls_0.memoryStateTime::ACT     781071250                       # Time in different power states
system.mem_ctrls_0.memoryStateTime::ACT_PDN            0                       # Time in different power states
system.mem_ctrls_1.actEnergy                  8973720                       # Energy for activate commands per rank (pJ)
system.mem_ctrls_1.preEnergy                  4896375                       # Energy for precharge commands per rank (pJ)
system.mem_ctrls_1.readEnergy                24983400                       # Energy for read commands per rank (pJ)
system.mem_ctrls_1.writeEnergy                      0                       # Energy for write commands per rank (pJ)
system.mem_ctrls_1.refreshEnergy             97134960                       # Energy for refresh commands per rank (pJ)
system.mem_ctrls_1.actBackEnergy            492755310                       # Energy for active background per rank (pJ)
system.mem_ctrls_1.preBackEnergy            460210500                       # Energy for precharge background per rank (pJ)
system.mem_ctrls_1.totalEnergy             1088954265                       # Total energy per rank (pJ)
system.mem_ctrls_1.averagePower            732.109468                       # Core power per rank (mW)
system.mem_ctrls_1.memoryStateTime::IDLE    766837500                       # Time in different power states
system.mem_ctrls_1.memoryStateTime::REF      49660000                       # Time in different power states
system.mem_ctrls_1.memoryStateTime::PRE_PDN            0                       # Time in different power states
system.mem_ctrls_1.memoryStateTime::ACT     676319000                       # Time in different power states
system.mem_ctrls_1.memoryStateTime::ACT_PDN            0                       # Time in different power states
system.cpu00.branchPred.lookups                177810                       # Number of BP lookups
system.cpu00.branchPred.condPredicted          175401                       # Number of conditional branches predicted
system.cpu00.branchPred.condIncorrect            2244                       # Number of conditional branches incorrect
system.cpu00.branchPred.BTBLookups             175352                       # Number of BTB lookups
system.cpu00.branchPred.BTBHits                172178                       # Number of BTB hits
system.cpu00.branchPred.BTBCorrect                  0                       # Number of correct BTB predictions (this stat may not work properly.
system.cpu00.branchPred.BTBHitPct           98.189927                       # BTB Hit Percentage
system.cpu00.branchPred.usedRAS                   935                       # Number of times the RAS was used to get a target.
system.cpu00.branchPred.RASInCorrect               12                       # Number of incorrect RAS predictions.
system.cpu_voltage_domain.voltage                   1                       # Voltage in Volts
system.cpu_clk_domain.clock                       500                       # Clock period in ticks
system.cpu00.dstage2_mmu.stage2_tlb.walker.walks            0                       # Table walker walks requested
system.cpu00.dstage2_mmu.stage2_tlb.walker.walkRequestOrigin_Requested::Data            0                       # Table walker requests started/completed, data/inst
system.cpu00.dstage2_mmu.stage2_tlb.walker.walkRequestOrigin_Requested::Inst            0                       # Table walker requests started/completed, data/inst
system.cpu00.dstage2_mmu.stage2_tlb.walker.walkRequestOrigin_Requested::total            0                       # Table walker requests started/completed, data/inst
system.cpu00.dstage2_mmu.stage2_tlb.walker.walkRequestOrigin_Completed::Data            0                       # Table walker requests started/completed, data/inst
system.cpu00.dstage2_mmu.stage2_tlb.walker.walkRequestOrigin_Completed::Inst            0                       # Table walker requests started/completed, data/inst
system.cpu00.dstage2_mmu.stage2_tlb.walker.walkRequestOrigin_Completed::total            0                       # Table walker requests started/completed, data/inst
system.cpu00.dstage2_mmu.stage2_tlb.walker.walkRequestOrigin::total            0                       # Table walker requests started/completed, data/inst
system.cpu00.dstage2_mmu.stage2_tlb.inst_hits            0                       # ITB inst hits
system.cpu00.dstage2_mmu.stage2_tlb.inst_misses            0                       # ITB inst misses
system.cpu00.dstage2_mmu.stage2_tlb.read_hits            0                       # DTB read hits
system.cpu00.dstage2_mmu.stage2_tlb.read_misses            0                       # DTB read misses
system.cpu00.dstage2_mmu.stage2_tlb.write_hits            0                       # DTB write hits
system.cpu00.dstage2_mmu.stage2_tlb.write_misses            0                       # DTB write misses
system.cpu00.dstage2_mmu.stage2_tlb.flush_tlb            0                       # Number of times complete TLB was flushed
system.cpu00.dstage2_mmu.stage2_tlb.flush_tlb_mva            0                       # Number of times TLB was flushed by MVA
system.cpu00.dstage2_mmu.stage2_tlb.flush_tlb_mva_asid            0                       # Number of times TLB was flushed by MVA & ASID
system.cpu00.dstage2_mmu.stage2_tlb.flush_tlb_asid            0                       # Number of times TLB was flushed by ASID
system.cpu00.dstage2_mmu.stage2_tlb.flush_entries            0                       # Number of entries that have been flushed from TLB
system.cpu00.dstage2_mmu.stage2_tlb.align_faults            0                       # Number of TLB faults due to alignment restrictions
system.cpu00.dstage2_mmu.stage2_tlb.prefetch_faults            0                       # Number of TLB faults due to prefetch
system.cpu00.dstage2_mmu.stage2_tlb.domain_faults            0                       # Number of TLB faults due to domain restrictions
system.cpu00.dstage2_mmu.stage2_tlb.perms_faults            0                       # Number of TLB faults due to permissions restrictions
system.cpu00.dstage2_mmu.stage2_tlb.read_accesses            0                       # DTB read accesses
system.cpu00.dstage2_mmu.stage2_tlb.write_accesses            0                       # DTB write accesses
system.cpu00.dstage2_mmu.stage2_tlb.inst_accesses            0                       # ITB inst accesses
system.cpu00.dstage2_mmu.stage2_tlb.hits            0                       # DTB hits
system.cpu00.dstage2_mmu.stage2_tlb.misses            0                       # DTB misses
system.cpu00.dstage2_mmu.stage2_tlb.accesses            0                       # DTB accesses
system.cpu00.dtb.walker.walks                       0                       # Table walker walks requested
system.cpu00.dtb.walker.walkRequestOrigin_Requested::Data            0                       # Table walker requests started/completed, data/inst
system.cpu00.dtb.walker.walkRequestOrigin_Requested::Inst            0                       # Table walker requests started/completed, data/inst
system.cpu00.dtb.walker.walkRequestOrigin_Requested::total            0                       # Table walker requests started/completed, data/inst
system.cpu00.dtb.walker.walkRequestOrigin_Completed::Data            0                       # Table walker requests started/completed, data/inst
system.cpu00.dtb.walker.walkRequestOrigin_Completed::Inst            0                       # Table walker requests started/completed, data/inst
system.cpu00.dtb.walker.walkRequestOrigin_Completed::total            0                       # Table walker requests started/completed, data/inst
system.cpu00.dtb.walker.walkRequestOrigin::total            0                       # Table walker requests started/completed, data/inst
system.cpu00.dtb.inst_hits                          0                       # ITB inst hits
system.cpu00.dtb.inst_misses                        0                       # ITB inst misses
system.cpu00.dtb.read_hits                          0                       # DTB read hits
system.cpu00.dtb.read_misses                        0                       # DTB read misses
system.cpu00.dtb.write_hits                         0                       # DTB write hits
system.cpu00.dtb.write_misses                       0                       # DTB write misses
system.cpu00.dtb.flush_tlb                          0                       # Number of times complete TLB was flushed
system.cpu00.dtb.flush_tlb_mva                      0                       # Number of times TLB was flushed by MVA
system.cpu00.dtb.flush_tlb_mva_asid                 0                       # Number of times TLB was flushed by MVA & ASID
system.cpu00.dtb.flush_tlb_asid                     0                       # Number of times TLB was flushed by ASID
system.cpu00.dtb.flush_entries                      0                       # Number of entries that have been flushed from TLB
system.cpu00.dtb.align_faults                       0                       # Number of TLB faults due to alignment restrictions
system.cpu00.dtb.prefetch_faults                    0                       # Number of TLB faults due to prefetch
system.cpu00.dtb.domain_faults                      0                       # Number of TLB faults due to domain restrictions
system.cpu00.dtb.perms_faults                       0                       # Number of TLB faults due to permissions restrictions
system.cpu00.dtb.read_accesses                      0                       # DTB read accesses
system.cpu00.dtb.write_accesses                     0                       # DTB write accesses
system.cpu00.dtb.inst_accesses                      0                       # ITB inst accesses
system.cpu00.dtb.hits                               0                       # DTB hits
system.cpu00.dtb.misses                             0                       # DTB misses
system.cpu00.dtb.accesses                           0                       # DTB accesses
system.cpu00.istage2_mmu.stage2_tlb.walker.walks            0                       # Table walker walks requested
system.cpu00.istage2_mmu.stage2_tlb.walker.walkRequestOrigin_Requested::Data            0                       # Table walker requests started/completed, data/inst
system.cpu00.istage2_mmu.stage2_tlb.walker.walkRequestOrigin_Requested::Inst            0                       # Table walker requests started/completed, data/inst
system.cpu00.istage2_mmu.stage2_tlb.walker.walkRequestOrigin_Requested::total            0                       # Table walker requests started/completed, data/inst
system.cpu00.istage2_mmu.stage2_tlb.walker.walkRequestOrigin_Completed::Data            0                       # Table walker requests started/completed, data/inst
system.cpu00.istage2_mmu.stage2_tlb.walker.walkRequestOrigin_Completed::Inst            0                       # Table walker requests started/completed, data/inst
system.cpu00.istage2_mmu.stage2_tlb.walker.walkRequestOrigin_Completed::total            0                       # Table walker requests started/completed, data/inst
system.cpu00.istage2_mmu.stage2_tlb.walker.walkRequestOrigin::total            0                       # Table walker requests started/completed, data/inst
system.cpu00.istage2_mmu.stage2_tlb.inst_hits            0                       # ITB inst hits
system.cpu00.istage2_mmu.stage2_tlb.inst_misses            0                       # ITB inst misses
system.cpu00.istage2_mmu.stage2_tlb.read_hits            0                       # DTB read hits
system.cpu00.istage2_mmu.stage2_tlb.read_misses            0                       # DTB read misses
system.cpu00.istage2_mmu.stage2_tlb.write_hits            0                       # DTB write hits
system.cpu00.istage2_mmu.stage2_tlb.write_misses            0                       # DTB write misses
system.cpu00.istage2_mmu.stage2_tlb.flush_tlb            0                       # Number of times complete TLB was flushed
system.cpu00.istage2_mmu.stage2_tlb.flush_tlb_mva            0                       # Number of times TLB was flushed by MVA
system.cpu00.istage2_mmu.stage2_tlb.flush_tlb_mva_asid            0                       # Number of times TLB was flushed by MVA & ASID
system.cpu00.istage2_mmu.stage2_tlb.flush_tlb_asid            0                       # Number of times TLB was flushed by ASID
system.cpu00.istage2_mmu.stage2_tlb.flush_entries            0                       # Number of entries that have been flushed from TLB
system.cpu00.istage2_mmu.stage2_tlb.align_faults            0                       # Number of TLB faults due to alignment restrictions
system.cpu00.istage2_mmu.stage2_tlb.prefetch_faults            0                       # Number of TLB faults due to prefetch
system.cpu00.istage2_mmu.stage2_tlb.domain_faults            0                       # Number of TLB faults due to domain restrictions
system.cpu00.istage2_mmu.stage2_tlb.perms_faults            0                       # Number of TLB faults due to permissions restrictions
system.cpu00.istage2_mmu.stage2_tlb.read_accesses            0                       # DTB read accesses
system.cpu00.istage2_mmu.stage2_tlb.write_accesses            0                       # DTB write accesses
system.cpu00.istage2_mmu.stage2_tlb.inst_accesses            0                       # ITB inst accesses
system.cpu00.istage2_mmu.stage2_tlb.hits            0                       # DTB hits
system.cpu00.istage2_mmu.stage2_tlb.misses            0                       # DTB misses
system.cpu00.istage2_mmu.stage2_tlb.accesses            0                       # DTB accesses
system.cpu00.itb.walker.walks                       0                       # Table walker walks requested
system.cpu00.itb.walker.walkRequestOrigin_Requested::Data            0                       # Table walker requests started/completed, data/inst
system.cpu00.itb.walker.walkRequestOrigin_Requested::Inst            0                       # Table walker requests started/completed, data/inst
system.cpu00.itb.walker.walkRequestOrigin_Requested::total            0                       # Table walker requests started/completed, data/inst
system.cpu00.itb.walker.walkRequestOrigin_Completed::Data            0                       # Table walker requests started/completed, data/inst
system.cpu00.itb.walker.walkRequestOrigin_Completed::Inst            0                       # Table walker requests started/completed, data/inst
system.cpu00.itb.walker.walkRequestOrigin_Completed::total            0                       # Table walker requests started/completed, data/inst
system.cpu00.itb.walker.walkRequestOrigin::total            0                       # Table walker requests started/completed, data/inst
system.cpu00.itb.inst_hits                          0                       # ITB inst hits
system.cpu00.itb.inst_misses                        0                       # ITB inst misses
system.cpu00.itb.read_hits                          0                       # DTB read hits
system.cpu00.itb.read_misses                        0                       # DTB read misses
system.cpu00.itb.write_hits                         0                       # DTB write hits
system.cpu00.itb.write_misses                       0                       # DTB write misses
system.cpu00.itb.flush_tlb                          0                       # Number of times complete TLB was flushed
system.cpu00.itb.flush_tlb_mva                      0                       # Number of times TLB was flushed by MVA
system.cpu00.itb.flush_tlb_mva_asid                 0                       # Number of times TLB was flushed by MVA & ASID
system.cpu00.itb.flush_tlb_asid                     0                       # Number of times TLB was flushed by ASID
system.cpu00.itb.flush_entries                      0                       # Number of entries that have been flushed from TLB
system.cpu00.itb.align_faults                       0                       # Number of TLB faults due to alignment restrictions
system.cpu00.itb.prefetch_faults                    0                       # Number of TLB faults due to prefetch
system.cpu00.itb.domain_faults                      0                       # Number of TLB faults due to domain restrictions
system.cpu00.itb.perms_faults                       0                       # Number of TLB faults due to permissions restrictions
system.cpu00.itb.read_accesses                      0                       # DTB read accesses
system.cpu00.itb.write_accesses                     0                       # DTB write accesses
system.cpu00.itb.inst_accesses                      0                       # ITB inst accesses
system.cpu00.itb.hits                               0                       # DTB hits
system.cpu00.itb.misses                             0                       # DTB misses
system.cpu00.itb.accesses                           0                       # DTB accesses
system.cpu00.workload.num_syscalls               8335                       # Number of system calls
system.cpu00.numCycles                        2989754                       # number of cpu cycles simulated
system.cpu00.numWorkItemsStarted                    0                       # number of work items this cpu started
system.cpu00.numWorkItemsCompleted                  0                       # number of work items this cpu completed
system.cpu00.fetch.icacheStallCycles           324192                       # Number of cycles fetch is stalled on an Icache miss
system.cpu00.fetch.Insts                      2412200                       # Number of instructions fetch has processed
system.cpu00.fetch.Branches                    177810                       # Number of branches that fetch encountered
system.cpu00.fetch.predictedBranches           173113                       # Number of branches that fetch has predicted taken
system.cpu00.fetch.Cycles                     2621831                       # Number of cycles fetch has run and was not squashing or blocked
system.cpu00.fetch.SquashCycles                  4685                       # Number of cycles fetch has spent squashing
system.cpu00.fetch.MiscStallCycles                  1                       # Number of cycles fetch has spent waiting on interrupts, or bad addresses, or out of MSHRs
system.cpu00.fetch.PendingTrapStallCycles            5                       # Number of stall cycles due to pending traps
system.cpu00.fetch.CacheLines                  310007                       # Number of cache lines fetched
system.cpu00.fetch.IcacheSquashes                 685                       # Number of outstanding Icache misses that were squashed
system.cpu00.fetch.rateDist::samples          2948371                       # Number of instructions fetched each cycle (Total)
system.cpu00.fetch.rateDist::mean            0.821198                       # Number of instructions fetched each cycle (Total)
system.cpu00.fetch.rateDist::stdev           2.083713                       # Number of instructions fetched each cycle (Total)
system.cpu00.fetch.rateDist::underflows             0      0.00%      0.00% # Number of instructions fetched each cycle (Total)
system.cpu00.fetch.rateDist::0                2464036     83.57%     83.57% # Number of instructions fetched each cycle (Total)
system.cpu00.fetch.rateDist::1                  52333      1.77%     85.35% # Number of instructions fetched each cycle (Total)
system.cpu00.fetch.rateDist::2                  55138      1.87%     87.22% # Number of instructions fetched each cycle (Total)
system.cpu00.fetch.rateDist::3                  35282      1.20%     88.41% # Number of instructions fetched each cycle (Total)
system.cpu00.fetch.rateDist::4                  54577      1.85%     90.27% # Number of instructions fetched each cycle (Total)
system.cpu00.fetch.rateDist::5                  44067      1.49%     91.76% # Number of instructions fetched each cycle (Total)
system.cpu00.fetch.rateDist::6                  58700      1.99%     93.75% # Number of instructions fetched each cycle (Total)
system.cpu00.fetch.rateDist::7                 112005      3.80%     97.55% # Number of instructions fetched each cycle (Total)
system.cpu00.fetch.rateDist::8                  72233      2.45%    100.00% # Number of instructions fetched each cycle (Total)
system.cpu00.fetch.rateDist::overflows              0      0.00%    100.00% # Number of instructions fetched each cycle (Total)
system.cpu00.fetch.rateDist::min_value              0                       # Number of instructions fetched each cycle (Total)
system.cpu00.fetch.rateDist::max_value              8                       # Number of instructions fetched each cycle (Total)
system.cpu00.fetch.rateDist::total            2948371                       # Number of instructions fetched each cycle (Total)
system.cpu00.fetch.branchRate                0.059473                       # Number of branch fetches per cycle
system.cpu00.fetch.rate                      0.806822                       # Number of inst fetches per cycle
system.cpu00.decode.IdleCycles                 125520                       # Number of cycles decode is idle
system.cpu00.decode.BlockedCycles             2510520                       # Number of cycles decode is blocked
system.cpu00.decode.RunCycles                   68051                       # Number of cycles decode is running
system.cpu00.decode.UnblockCycles              242246                       # Number of cycles decode is unblocking
system.cpu00.decode.SquashCycles                 2034                       # Number of cycles decode is squashing
system.cpu00.decode.BranchResolved               1006                       # Number of times decode resolved a branch
system.cpu00.decode.BranchMispred                 324                       # Number of times decode detected a branch misprediction
system.cpu00.decode.DecodedInsts              2366562                       # Number of instructions handled by decode
system.cpu00.decode.SquashedInsts                1127                       # Number of squashed instructions handled by decode
system.cpu00.rename.SquashCycles                 2034                       # Number of cycles rename is squashing
system.cpu00.rename.IdleCycles                 178804                       # Number of cycles rename is idle
system.cpu00.rename.BlockCycles               1278741                       # Number of cycles rename is blocking
system.cpu00.rename.serializeStallCycles        16196                       # count of cycles rename stalled for serializing inst
system.cpu00.rename.RunCycles                  222874                       # Number of cycles rename is running
system.cpu00.rename.UnblockCycles             1249722                       # Number of cycles rename is unblocking
system.cpu00.rename.RenamedInsts              2356413                       # Number of instructions processed by rename
system.cpu00.rename.ROBFullEvents                  17                       # Number of times rename has blocked due to ROB full
system.cpu00.rename.IQFullEvents               928473                       # Number of times rename has blocked due to IQ full
system.cpu00.rename.LQFullEvents                38160                       # Number of times rename has blocked due to LQ full
system.cpu00.rename.SQFullEvents               255384                       # Number of times rename has blocked due to SQ full
system.cpu00.rename.RenamedOperands           2981442                       # Number of destination operands rename has renamed
system.cpu00.rename.RenameLookups            11567476                       # Number of register rename lookups that rename has made
system.cpu00.rename.int_rename_lookups        3881118                       # Number of integer rename lookups
system.cpu00.rename.fp_rename_lookups              22                       # Number of floating rename lookups
system.cpu00.rename.CommittedMaps             2955051                       # Number of HB maps that are committed
system.cpu00.rename.UndoneMaps                  26391                       # Number of HB maps that are undone due to squashing
system.cpu00.rename.serializingInsts              159                       # count of serializing insts renamed
system.cpu00.rename.tempSerializingInsts          159                       # count of temporary serializing insts renamed
system.cpu00.rename.skidInsts                 1478312                       # count of insts added to the skid buffer
system.cpu00.memDep0.insertedLoads             535555                       # Number of loads inserted to the mem dependence unit.
system.cpu00.memDep0.insertedStores             74653                       # Number of stores inserted to the mem dependence unit.
system.cpu00.memDep0.conflictingLoads            2638                       # Number of conflicting loads.
system.cpu00.memDep0.conflictingStores            742                       # Number of conflicting stores.
system.cpu00.iq.iqInstsAdded                  2348379                       # Number of instructions added to the IQ (excludes non-spec)
system.cpu00.iq.iqNonSpecInstsAdded               299                       # Number of non-speculative instructions added to the IQ
system.cpu00.iq.iqInstsIssued                 4115784                       # Number of instructions issued
system.cpu00.iq.iqSquashedInstsIssued             332                       # Number of squashed instructions issued
system.cpu00.iq.iqSquashedInstsExamined         16504                       # Number of squashed instructions iterated over during squash; mainly for profiling
system.cpu00.iq.iqSquashedOperandsExamined        40367                       # Number of squashed operands that are examined and possibly removed from graph
system.cpu00.iq.iqSquashedNonSpecRemoved           79                       # Number of squashed non-spec instructions that were removed
system.cpu00.iq.issued_per_cycle::samples      2948371                       # Number of insts issued each cycle
system.cpu00.iq.issued_per_cycle::mean       1.395952                       # Number of insts issued each cycle
system.cpu00.iq.issued_per_cycle::stdev      1.781690                       # Number of insts issued each cycle
system.cpu00.iq.issued_per_cycle::underflows            0      0.00%      0.00% # Number of insts issued each cycle
system.cpu00.iq.issued_per_cycle::0           1376061     46.67%     46.67% # Number of insts issued each cycle
system.cpu00.iq.issued_per_cycle::1            625691     21.22%     67.89% # Number of insts issued each cycle
system.cpu00.iq.issued_per_cycle::2            218411      7.41%     75.30% # Number of insts issued each cycle
system.cpu00.iq.issued_per_cycle::3            203934      6.92%     82.22% # Number of insts issued each cycle
system.cpu00.iq.issued_per_cycle::4            272477      9.24%     91.46% # Number of insts issued each cycle
system.cpu00.iq.issued_per_cycle::5            196040      6.65%     98.11% # Number of insts issued each cycle
system.cpu00.iq.issued_per_cycle::6             30704      1.04%     99.15% # Number of insts issued each cycle
system.cpu00.iq.issued_per_cycle::7             13287      0.45%     99.60% # Number of insts issued each cycle
system.cpu00.iq.issued_per_cycle::8             11766      0.40%    100.00% # Number of insts issued each cycle
system.cpu00.iq.issued_per_cycle::overflows            0      0.00%    100.00% # Number of insts issued each cycle
system.cpu00.iq.issued_per_cycle::min_value            0                       # Number of insts issued each cycle
system.cpu00.iq.issued_per_cycle::max_value            8                       # Number of insts issued each cycle
system.cpu00.iq.issued_per_cycle::total       2948371                       # Number of insts issued each cycle
system.cpu00.iq.fu_full::No_OpClass                 0      0.00%      0.00% # attempts to use FU when none available
system.cpu00.iq.fu_full::IntAlu                   172      0.04%      0.04% # attempts to use FU when none available
system.cpu00.iq.fu_full::IntMult                  290      0.08%      0.12% # attempts to use FU when none available
system.cpu00.iq.fu_full::IntDiv                     0      0.00%      0.12% # attempts to use FU when none available
system.cpu00.iq.fu_full::FloatAdd                   0      0.00%      0.12% # attempts to use FU when none available
system.cpu00.iq.fu_full::FloatCmp                   0      0.00%      0.12% # attempts to use FU when none available
system.cpu00.iq.fu_full::FloatCvt                   0      0.00%      0.12% # attempts to use FU when none available
system.cpu00.iq.fu_full::FloatMult                  0      0.00%      0.12% # attempts to use FU when none available
system.cpu00.iq.fu_full::FloatDiv                   0      0.00%      0.12% # attempts to use FU when none available
system.cpu00.iq.fu_full::FloatSqrt                  0      0.00%      0.12% # attempts to use FU when none available
system.cpu00.iq.fu_full::SimdAdd                    0      0.00%      0.12% # attempts to use FU when none available
system.cpu00.iq.fu_full::SimdAddAcc                 0      0.00%      0.12% # attempts to use FU when none available
system.cpu00.iq.fu_full::SimdAlu                    0      0.00%      0.12% # attempts to use FU when none available
system.cpu00.iq.fu_full::SimdCmp                    0      0.00%      0.12% # attempts to use FU when none available
system.cpu00.iq.fu_full::SimdCvt                    0      0.00%      0.12% # attempts to use FU when none available
system.cpu00.iq.fu_full::SimdMisc                   0      0.00%      0.12% # attempts to use FU when none available
system.cpu00.iq.fu_full::SimdMult                   0      0.00%      0.12% # attempts to use FU when none available
system.cpu00.iq.fu_full::SimdMultAcc                0      0.00%      0.12% # attempts to use FU when none available
system.cpu00.iq.fu_full::SimdShift                  0      0.00%      0.12% # attempts to use FU when none available
system.cpu00.iq.fu_full::SimdShiftAcc               0      0.00%      0.12% # attempts to use FU when none available
system.cpu00.iq.fu_full::SimdSqrt                   0      0.00%      0.12% # attempts to use FU when none available
system.cpu00.iq.fu_full::SimdFloatAdd               0      0.00%      0.12% # attempts to use FU when none available
system.cpu00.iq.fu_full::SimdFloatAlu               0      0.00%      0.12% # attempts to use FU when none available
system.cpu00.iq.fu_full::SimdFloatCmp               0      0.00%      0.12% # attempts to use FU when none available
system.cpu00.iq.fu_full::SimdFloatCvt               0      0.00%      0.12% # attempts to use FU when none available
system.cpu00.iq.fu_full::SimdFloatDiv               0      0.00%      0.12% # attempts to use FU when none available
system.cpu00.iq.fu_full::SimdFloatMisc              0      0.00%      0.12% # attempts to use FU when none available
system.cpu00.iq.fu_full::SimdFloatMult              0      0.00%      0.12% # attempts to use FU when none available
system.cpu00.iq.fu_full::SimdFloatMultAcc            0      0.00%      0.12% # attempts to use FU when none available
system.cpu00.iq.fu_full::SimdFloatSqrt              0      0.00%      0.12% # attempts to use FU when none available
system.cpu00.iq.fu_full::MemRead               383257     99.81%     99.93% # attempts to use FU when none available
system.cpu00.iq.fu_full::MemWrite                 252      0.07%    100.00% # attempts to use FU when none available
system.cpu00.iq.fu_full::IprAccess                  0      0.00%    100.00% # attempts to use FU when none available
system.cpu00.iq.fu_full::InstPrefetch               0      0.00%    100.00% # attempts to use FU when none available
system.cpu00.iq.FU_type_0::No_OpClass               0      0.00%      0.00% # Type of FU issued
system.cpu00.iq.FU_type_0::IntAlu             1307144     31.76%     31.76% # Type of FU issued
system.cpu00.iq.FU_type_0::IntMult             426411     10.36%     42.12% # Type of FU issued
system.cpu00.iq.FU_type_0::IntDiv                   0      0.00%     42.12% # Type of FU issued
system.cpu00.iq.FU_type_0::FloatAdd                 0      0.00%     42.12% # Type of FU issued
system.cpu00.iq.FU_type_0::FloatCmp                 0      0.00%     42.12% # Type of FU issued
system.cpu00.iq.FU_type_0::FloatCvt                 0      0.00%     42.12% # Type of FU issued
system.cpu00.iq.FU_type_0::FloatMult                0      0.00%     42.12% # Type of FU issued
system.cpu00.iq.FU_type_0::FloatDiv                 0      0.00%     42.12% # Type of FU issued
system.cpu00.iq.FU_type_0::FloatSqrt                0      0.00%     42.12% # Type of FU issued
system.cpu00.iq.FU_type_0::SimdAdd                  0      0.00%     42.12% # Type of FU issued
system.cpu00.iq.FU_type_0::SimdAddAcc               0      0.00%     42.12% # Type of FU issued
system.cpu00.iq.FU_type_0::SimdAlu                  0      0.00%     42.12% # Type of FU issued
system.cpu00.iq.FU_type_0::SimdCmp                  0      0.00%     42.12% # Type of FU issued
system.cpu00.iq.FU_type_0::SimdCvt                  0      0.00%     42.12% # Type of FU issued
system.cpu00.iq.FU_type_0::SimdMisc                 0      0.00%     42.12% # Type of FU issued
system.cpu00.iq.FU_type_0::SimdMult                 0      0.00%     42.12% # Type of FU issued
system.cpu00.iq.FU_type_0::SimdMultAcc              0      0.00%     42.12% # Type of FU issued
system.cpu00.iq.FU_type_0::SimdShift                0      0.00%     42.12% # Type of FU issued
system.cpu00.iq.FU_type_0::SimdShiftAcc             0      0.00%     42.12% # Type of FU issued
system.cpu00.iq.FU_type_0::SimdSqrt                 0      0.00%     42.12% # Type of FU issued
system.cpu00.iq.FU_type_0::SimdFloatAdd             0      0.00%     42.12% # Type of FU issued
system.cpu00.iq.FU_type_0::SimdFloatAlu             0      0.00%     42.12% # Type of FU issued
system.cpu00.iq.FU_type_0::SimdFloatCmp             0      0.00%     42.12% # Type of FU issued
system.cpu00.iq.FU_type_0::SimdFloatCvt             0      0.00%     42.12% # Type of FU issued
system.cpu00.iq.FU_type_0::SimdFloatDiv             0      0.00%     42.12% # Type of FU issued
system.cpu00.iq.FU_type_0::SimdFloatMisc            3      0.00%     42.12% # Type of FU issued
system.cpu00.iq.FU_type_0::SimdFloatMult            0      0.00%     42.12% # Type of FU issued
system.cpu00.iq.FU_type_0::SimdFloatMultAcc            0      0.00%     42.12% # Type of FU issued
system.cpu00.iq.FU_type_0::SimdFloatSqrt            0      0.00%     42.12% # Type of FU issued
system.cpu00.iq.FU_type_0::MemRead            2308544     56.09%     98.21% # Type of FU issued
system.cpu00.iq.FU_type_0::MemWrite             73682      1.79%    100.00% # Type of FU issued
system.cpu00.iq.FU_type_0::IprAccess                0      0.00%    100.00% # Type of FU issued
system.cpu00.iq.FU_type_0::InstPrefetch             0      0.00%    100.00% # Type of FU issued
system.cpu00.iq.FU_type_0::total              4115784                       # Type of FU issued
system.cpu00.iq.rate                         1.376630                       # Inst issue rate
[...]
system.tol2bus.pkt_count_system.cpu06.dcache.mem_side::system.l2.cpu_side       205094                       # Packet count per connected master and slave (bytes)
system.tol2bus.pkt_count_system.cpu07.icache.mem_side::system.l2.cpu_side          106                       # Packet count per connected master and slave (bytes)
system.tol2bus.pkt_count_system.cpu07.dcache.mem_side::system.l2.cpu_side       205136                       # Packet count per connected master and slave (bytes)
system.tol2bus.pkt_count_system.cpu08.icache.mem_side::system.l2.cpu_side          106                       # Packet count per connected master and slave (bytes)
system.tol2bus.pkt_count_system.cpu08.dcache.mem_side::system.l2.cpu_side       204922                       # Packet count per connected master and slave (bytes)
system.tol2bus.pkt_count_system.cpu09.icache.mem_side::system.l2.cpu_side          106                       # Packet count per connected master and slave (bytes)
system.tol2bus.pkt_count_system.cpu09.dcache.mem_side::system.l2.cpu_side       205026                       # Packet count per connected master and slave (bytes)
system.tol2bus.pkt_count_system.cpu10.icache.mem_side::system.l2.cpu_side          106                       # Packet count per connected master and slave (bytes)
system.tol2bus.pkt_count_system.cpu10.dcache.mem_side::system.l2.cpu_side       205009                       # Packet count per connected master and slave (bytes)
system.tol2bus.pkt_count_system.cpu11.icache.mem_side::system.l2.cpu_side          110                       # Packet count per connected master and slave (bytes)
system.tol2bus.pkt_count_system.cpu11.dcache.mem_side::system.l2.cpu_side       205014                       # Packet count per connected master and slave (bytes)
system.tol2bus.pkt_count_system.cpu12.icache.mem_side::system.l2.cpu_side          110                       # Packet count per connected master and slave (bytes)
system.tol2bus.pkt_count_system.cpu12.dcache.mem_side::system.l2.cpu_side       205003                       # Packet count per connected master and slave (bytes)
system.tol2bus.pkt_count_system.cpu13.icache.mem_side::system.l2.cpu_side          114                       # Packet count per connected master and slave (bytes)
system.tol2bus.pkt_count_system.cpu13.dcache.mem_side::system.l2.cpu_side       205029                       # Packet count per connected master and slave (bytes)
system.tol2bus.pkt_count_system.cpu14.icache.mem_side::system.l2.cpu_side          110                       # Packet count per connected master and slave (bytes)
system.tol2bus.pkt_count_system.cpu14.dcache.mem_side::system.l2.cpu_side       205258                       # Packet count per connected master and slave (bytes)
system.tol2bus.pkt_count_system.cpu15.icache.mem_side::system.l2.cpu_side          106                       # Packet count per connected master and slave (bytes)
system.tol2bus.pkt_count_system.cpu15.dcache.mem_side::system.l2.cpu_side       205026                       # Packet count per connected master and slave (bytes)
system.tol2bus.pkt_count::total               3349025                       # Packet count per connected master and slave (bytes)
system.tol2bus.pkt_size_system.cpu00.icache.mem_side::system.l2.cpu_side        39296                       # Cumulative packet size per connected master and slave (bytes)
system.tol2bus.pkt_size_system.cpu00.dcache.mem_side::system.l2.cpu_side      8464896                       # Cumulative packet size per connected master and slave (bytes)
system.tol2bus.pkt_size_system.cpu01.icache.mem_side::system.l2.cpu_side         3264                       # Cumulative packet size per connected master and slave (bytes)
system.tol2bus.pkt_size_system.cpu01.dcache.mem_side::system.l2.cpu_side      4588800                       # Cumulative packet size per connected master and slave (bytes)
system.tol2bus.pkt_size_system.cpu02.icache.mem_side::system.l2.cpu_side         3456                       # Cumulative packet size per connected master and slave (bytes)
system.tol2bus.pkt_size_system.cpu02.dcache.mem_side::system.l2.cpu_side      4585536                       # Cumulative packet size per connected master and slave (bytes)
system.tol2bus.pkt_size_system.cpu03.icache.mem_side::system.l2.cpu_side         3264                       # Cumulative packet size per connected master and slave (bytes)
system.tol2bus.pkt_size_system.cpu03.dcache.mem_side::system.l2.cpu_side      4589824                       # Cumulative packet size per connected master and slave (bytes)
system.tol2bus.pkt_size_system.cpu04.icache.mem_side::system.l2.cpu_side         3456                       # Cumulative packet size per connected master and slave (bytes)
system.tol2bus.pkt_size_system.cpu04.dcache.mem_side::system.l2.cpu_side      4568256                       # Cumulative packet size per connected master and slave (bytes)
system.tol2bus.pkt_size_system.cpu05.icache.mem_side::system.l2.cpu_side         3584                       # Cumulative packet size per connected master and slave (bytes)
system.tol2bus.pkt_size_system.cpu05.dcache.mem_side::system.l2.cpu_side      4588032                       # Cumulative packet size per connected master and slave (bytes)
system.tol2bus.pkt_size_system.cpu06.icache.mem_side::system.l2.cpu_side         3392                       # Cumulative packet size per connected master and slave (bytes)
system.tol2bus.pkt_size_system.cpu06.dcache.mem_side::system.l2.cpu_side      4585664                       # Cumulative packet size per connected master and slave (bytes)
system.tol2bus.pkt_size_system.cpu07.icache.mem_side::system.l2.cpu_side         3392                       # Cumulative packet size per connected master and slave (bytes)
system.tol2bus.pkt_size_system.cpu07.dcache.mem_side::system.l2.cpu_side      4588480                       # Cumulative packet size per connected master and slave (bytes)
system.tol2bus.pkt_size_system.cpu08.icache.mem_side::system.l2.cpu_side         3392                       # Cumulative packet size per connected master and slave (bytes)
system.tol2bus.pkt_size_system.cpu08.dcache.mem_side::system.l2.cpu_side      4574528                       # Cumulative packet size per connected master and slave (bytes)
system.tol2bus.pkt_size_system.cpu09.icache.mem_side::system.l2.cpu_side         3392                       # Cumulative packet size per connected master and slave (bytes)
system.tol2bus.pkt_size_system.cpu09.dcache.mem_side::system.l2.cpu_side      4580928                       # Cumulative packet size per connected master and slave (bytes)
system.tol2bus.pkt_size_system.cpu10.icache.mem_side::system.l2.cpu_side         3392                       # Cumulative packet size per connected master and slave (bytes)
system.tol2bus.pkt_size_system.cpu10.dcache.mem_side::system.l2.cpu_side      4579968                       # Cumulative packet size per connected master and slave (bytes)
system.tol2bus.pkt_size_system.cpu11.icache.mem_side::system.l2.cpu_side         3520                       # Cumulative packet size per connected master and slave (bytes)
system.tol2bus.pkt_size_system.cpu11.dcache.mem_side::system.l2.cpu_side      4580608                       # Cumulative packet size per connected master and slave (bytes)
system.tol2bus.pkt_size_system.cpu12.icache.mem_side::system.l2.cpu_side         3520                       # Cumulative packet size per connected master and slave (bytes)
system.tol2bus.pkt_size_system.cpu12.dcache.mem_side::system.l2.cpu_side      4579584                       # Cumulative packet size per connected master and slave (bytes)
system.tol2bus.pkt_size_system.cpu13.icache.mem_side::system.l2.cpu_side         3648                       # Cumulative packet size per connected master and slave (bytes)
system.tol2bus.pkt_size_system.cpu13.dcache.mem_side::system.l2.cpu_side      4581184                       # Cumulative packet size per connected master and slave (bytes)
system.tol2bus.pkt_size_system.cpu14.icache.mem_side::system.l2.cpu_side         3520                       # Cumulative packet size per connected master and slave (bytes)
system.tol2bus.pkt_size_system.cpu14.dcache.mem_side::system.l2.cpu_side      4595840                       # Cumulative packet size per connected master and slave (bytes)
system.tol2bus.pkt_size_system.cpu15.icache.mem_side::system.l2.cpu_side         3392                       # Cumulative packet size per connected master and slave (bytes)
system.tol2bus.pkt_size_system.cpu15.dcache.mem_side::system.l2.cpu_side      4581056                       # Cumulative packet size per connected master and slave (bytes)
system.tol2bus.pkt_size::total               77304064                       # Cumulative packet size per connected master and slave (bytes)
system.tol2bus.snoops                         1061144                       # Total snoops (count)
system.tol2bus.snoop_fanout::samples          2269037                       # Request fanout histogram
system.tol2bus.snoop_fanout::mean                  31                       # Request fanout histogram
system.tol2bus.snoop_fanout::stdev                  0                       # Request fanout histogram
system.tol2bus.snoop_fanout::underflows             0      0.00%      0.00% # Request fanout histogram
system.tol2bus.snoop_fanout::0                      0      0.00%      0.00% # Request fanout histogram
system.tol2bus.snoop_fanout::1                      0      0.00%      0.00% # Request fanout histogram
system.tol2bus.snoop_fanout::2                      0      0.00%      0.00% # Request fanout histogram
system.tol2bus.snoop_fanout::3                      0      0.00%      0.00% # Request fanout histogram
system.tol2bus.snoop_fanout::4                      0      0.00%      0.00% # Request fanout histogram
system.tol2bus.snoop_fanout::5                      0      0.00%      0.00% # Request fanout histogram
system.tol2bus.snoop_fanout::6                      0      0.00%      0.00% # Request fanout histogram
system.tol2bus.snoop_fanout::7                      0      0.00%      0.00% # Request fanout histogram
system.tol2bus.snoop_fanout::8                      0      0.00%      0.00% # Request fanout histogram
system.tol2bus.snoop_fanout::9                      0      0.00%      0.00% # Request fanout histogram
system.tol2bus.snoop_fanout::10                     0      0.00%      0.00% # Request fanout histogram
system.tol2bus.snoop_fanout::11                     0      0.00%      0.00% # Request fanout histogram
system.tol2bus.snoop_fanout::12                     0      0.00%      0.00% # Request fanout histogram
system.tol2bus.snoop_fanout::13                     0      0.00%      0.00% # Request fanout histogram
system.tol2bus.snoop_fanout::14                     0      0.00%      0.00% # Request fanout histogram
system.tol2bus.snoop_fanout::15                     0      0.00%      0.00% # Request fanout histogram
system.tol2bus.snoop_fanout::16                     0      0.00%      0.00% # Request fanout histogram
system.tol2bus.snoop_fanout::17                     0      0.00%      0.00% # Request fanout histogram
system.tol2bus.snoop_fanout::18                     0      0.00%      0.00% # Request fanout histogram
system.tol2bus.snoop_fanout::19                     0      0.00%      0.00% # Request fanout histogram
system.tol2bus.snoop_fanout::20                     0      0.00%      0.00% # Request fanout histogram
system.tol2bus.snoop_fanout::21                     0      0.00%      0.00% # Request fanout histogram
system.tol2bus.snoop_fanout::22                     0      0.00%      0.00% # Request fanout histogram
system.tol2bus.snoop_fanout::23                     0      0.00%      0.00% # Request fanout histogram
system.tol2bus.snoop_fanout::24                     0      0.00%      0.00% # Request fanout histogram
system.tol2bus.snoop_fanout::25                     0      0.00%      0.00% # Request fanout histogram
system.tol2bus.snoop_fanout::26                     0      0.00%      0.00% # Request fanout histogram
system.tol2bus.snoop_fanout::27                     0      0.00%      0.00% # Request fanout histogram
system.tol2bus.snoop_fanout::28                     0      0.00%      0.00% # Request fanout histogram
system.tol2bus.snoop_fanout::29                     0      0.00%      0.00% # Request fanout histogram
system.tol2bus.snoop_fanout::30                     0      0.00%      0.00% # Request fanout histogram
system.tol2bus.snoop_fanout::31               2269037    100.00%    100.00% # Request fanout histogram
system.tol2bus.snoop_fanout::32                     0      0.00%    100.00% # Request fanout histogram
system.tol2bus.snoop_fanout::overflows              0      0.00%    100.00% # Request fanout histogram
system.tol2bus.snoop_fanout::min_value             31                       # Request fanout histogram
system.tol2bus.snoop_fanout::max_value             31                       # Request fanout histogram
system.tol2bus.snoop_fanout::total            2269037                       # Request fanout histogram
system.tol2bus.reqLayer0.occupancy         1262411494                       # Layer occupancy (ticks)
system.tol2bus.reqLayer0.utilization             84.4                       # Layer utilization (%)
system.tol2bus.respLayer0.occupancy           1016250                       # Layer occupancy (ticks)
system.tol2bus.respLayer0.utilization             0.1                       # Layer utilization (%)
system.tol2bus.respLayer1.occupancy         209769307                       # Layer occupancy (ticks)
system.tol2bus.respLayer1.utilization            14.0                       # Layer utilization (%)
system.tol2bus.respLayer4.occupancy             82961                       # Layer occupancy (ticks)
system.tol2bus.respLayer4.utilization             0.0                       # Layer utilization (%)
system.tol2bus.respLayer5.occupancy         201768760                       # Layer occupancy (ticks)
system.tol2bus.respLayer5.utilization            13.5                       # Layer utilization (%)
system.tol2bus.respLayer8.occupancy             90928                       # Layer occupancy (ticks)
system.tol2bus.respLayer8.utilization             0.0                       # Layer utilization (%)
system.tol2bus.respLayer9.occupancy         201712921                       # Layer occupancy (ticks)
system.tol2bus.respLayer9.utilization            13.5                       # Layer utilization (%)
system.tol2bus.respLayer12.occupancy            82457                       # Layer occupancy (ticks)
system.tol2bus.respLayer12.utilization            0.0                       # Layer utilization (%)
system.tol2bus.respLayer13.occupancy        201833137                       # Layer occupancy (ticks)
system.tol2bus.respLayer13.utilization           13.5                       # Layer utilization (%)
system.tol2bus.respLayer16.occupancy            85692                       # Layer occupancy (ticks)
system.tol2bus.respLayer16.utilization            0.0                       # Layer utilization (%)
system.tol2bus.respLayer17.occupancy        201759877                       # Layer occupancy (ticks)
system.tol2bus.respLayer17.utilization           13.5                       # Layer utilization (%)
system.tol2bus.respLayer20.occupancy            87960                       # Layer occupancy (ticks)
system.tol2bus.respLayer20.utilization            0.0                       # Layer utilization (%)
system.tol2bus.respLayer21.occupancy        201812856                       # Layer occupancy (ticks)
system.tol2bus.respLayer21.utilization           13.5                       # Layer utilization (%)
system.tol2bus.respLayer24.occupancy            81963                       # Layer occupancy (ticks)
system.tol2bus.respLayer24.utilization            0.0                       # Layer utilization (%)
system.tol2bus.respLayer25.occupancy        201753611                       # Layer occupancy (ticks)
system.tol2bus.respLayer25.utilization           13.5                       # Layer utilization (%)
system.tol2bus.respLayer28.occupancy            80977                       # Layer occupancy (ticks)
system.tol2bus.respLayer28.utilization            0.0                       # Layer utilization (%)
system.tol2bus.respLayer29.occupancy        201804461                       # Layer occupancy (ticks)
system.tol2bus.respLayer29.utilization           13.5                       # Layer utilization (%)
system.tol2bus.respLayer32.occupancy            82706                       # Layer occupancy (ticks)
system.tol2bus.respLayer32.utilization            0.0                       # Layer utilization (%)
system.tol2bus.respLayer33.occupancy        201871586                       # Layer occupancy (ticks)
system.tol2bus.respLayer33.utilization           13.5                       # Layer utilization (%)
system.tol2bus.respLayer36.occupancy            81733                       # Layer occupancy (ticks)
system.tol2bus.respLayer36.utilization            0.0                       # Layer utilization (%)
system.tol2bus.respLayer37.occupancy        201832077                       # Layer occupancy (ticks)
system.tol2bus.respLayer37.utilization           13.5                       # Layer utilization (%)
system.tol2bus.respLayer40.occupancy            81447                       # Layer occupancy (ticks)
system.tol2bus.respLayer40.utilization            0.0                       # Layer utilization (%)
system.tol2bus.respLayer41.occupancy        201751139                       # Layer occupancy (ticks)
system.tol2bus.respLayer41.utilization           13.5                       # Layer utilization (%)
system.tol2bus.respLayer44.occupancy            84950                       # Layer occupancy (ticks)
system.tol2bus.respLayer44.utilization            0.0                       # Layer utilization (%)
system.tol2bus.respLayer45.occupancy        201906155                       # Layer occupancy (ticks)
system.tol2bus.respLayer45.utilization           13.5                       # Layer utilization (%)
system.tol2bus.respLayer48.occupancy            85473                       # Layer occupancy (ticks)
system.tol2bus.respLayer48.utilization            0.0                       # Layer utilization (%)
system.tol2bus.respLayer49.occupancy        201730174                       # Layer occupancy (ticks)
system.tol2bus.respLayer49.utilization           13.5                       # Layer utilization (%)
system.tol2bus.respLayer52.occupancy            87239                       # Layer occupancy (ticks)
system.tol2bus.respLayer52.utilization            0.0                       # Layer utilization (%)
system.tol2bus.respLayer53.occupancy        201744365                       # Layer occupancy (ticks)
system.tol2bus.respLayer53.utilization           13.5                       # Layer utilization (%)
system.tol2bus.respLayer56.occupancy            83978                       # Layer occupancy (ticks)
system.tol2bus.respLayer56.utilization            0.0                       # Layer utilization (%)
system.tol2bus.respLayer57.occupancy        201705507                       # Layer occupancy (ticks)
system.tol2bus.respLayer57.utilization           13.5                       # Layer utilization (%)
system.tol2bus.respLayer60.occupancy            79999                       # Layer occupancy (ticks)
system.tol2bus.respLayer60.utilization            0.0                       # Layer utilization (%)
system.tol2bus.respLayer61.occupancy        201779522                       # Layer occupancy (ticks)
system.tol2bus.respLayer61.utilization           13.5                       # Layer utilization (%)

---------- End Simulation Statistics   ----------
