
---------- Begin Simulation Statistics ----------
sim_seconds                                  0.001462                       # Number of seconds simulated
sim_ticks                                  1462372000                       # Number of ticks simulated
final_tick                                 1462372000                       # Number of ticks from beginning of simulation (restored from checkpoints and never reset)
sim_freq                                 1000000000000                       # Frequency of simulated ticks
host_inst_rate                                  82350                       # Simulator instruction rate (inst/s)
host_op_rate                                    82939                       # Simulator op (including micro ops) rate (op/s)
host_tick_rate                                3030251                       # Simulator tick rate (ticks/s)
host_mem_usage                                 893988                       # Number of bytes of host memory used
host_seconds                                   482.59                       # Real time elapsed on the host
sim_insts                                    39741362                       # Number of instructions simulated
sim_ops                                      40025589                       # Number of ops (including micro ops) simulated
system.voltage_domain.voltage                       1                       # Voltage in Volts
system.clk_domain.clock                          1000                       # Clock period in ticks
system.mem_ctrls.bytes_read::cpu00.inst         32320                       # Number of bytes read from this memory
system.mem_ctrls.bytes_read::cpu00.data        289344                       # Number of bytes read from this memory
system.mem_ctrls.bytes_read::cpu01.inst          1536                       # Number of bytes read from this memory
system.mem_ctrls.bytes_read::cpu01.data          4608                       # Number of bytes read from this memory
system.mem_ctrls.bytes_read::cpu02.data          5440                       # Number of bytes read from this memory
system.mem_ctrls.bytes_read::cpu03.inst            64                       # Number of bytes read from this memory
system.mem_ctrls.bytes_read::cpu03.data          4864                       # Number of bytes read from this memory
system.mem_ctrls.bytes_read::cpu04.data          4480                       # Number of bytes read from this memory
system.mem_ctrls.bytes_read::cpu05.data          4544                       # Number of bytes read from this memory
system.mem_ctrls.bytes_read::cpu06.data          4416                       # Number of bytes read from this memory
system.mem_ctrls.bytes_read::cpu07.data          4480                       # Number of bytes read from this memory
system.mem_ctrls.bytes_read::cpu08.data          4480                       # Number of bytes read from this memory
system.mem_ctrls.bytes_read::cpu09.data          4544                       # Number of bytes read from this memory
system.mem_ctrls.bytes_read::cpu10.inst           192                       # Number of bytes read from this memory
system.mem_ctrls.bytes_read::cpu10.data          4544                       # Number of bytes read from this memory
system.mem_ctrls.bytes_read::cpu11.data          4544                       # Number of bytes read from this memory
system.mem_ctrls.bytes_read::cpu12.inst           320                       # Number of bytes read from this memory
system.mem_ctrls.bytes_read::cpu12.data          4608                       # Number of bytes read from this memory
system.mem_ctrls.bytes_read::cpu13.data          4480                       # Number of bytes read from this memory
system.mem_ctrls.bytes_read::cpu14.data          4416                       # Number of bytes read from this memory
system.mem_ctrls.bytes_read::cpu15.inst            64                       # Number of bytes read from this memory
system.mem_ctrls.bytes_read::cpu15.data          4544                       # Number of bytes read from this memory
system.mem_ctrls.bytes_read::cpu16.data          4480                       # Number of bytes read from this memory
system.mem_ctrls.bytes_read::cpu17.data          4544                       # Number of bytes read from this memory
system.mem_ctrls.bytes_read::cpu18.data          4544                       # Number of bytes read from this memory
system.mem_ctrls.bytes_read::cpu19.inst            64                       # Number of bytes read from this memory
system.mem_ctrls.bytes_read::cpu19.data          4480                       # Number of bytes read from this memory
system.mem_ctrls.bytes_read::cpu20.inst           128                       # Number of bytes read from this memory
system.mem_ctrls.bytes_read::cpu20.data          4608                       # Number of bytes read from this memory
system.mem_ctrls.bytes_read::cpu21.data          4416                       # Number of bytes read from this memory
system.mem_ctrls.bytes_read::cpu22.data          4416                       # Number of bytes read from this memory
system.mem_ctrls.bytes_read::cpu23.data          4544                       # Number of bytes read from this memory
system.mem_ctrls.bytes_read::cpu24.data          4480                       # Number of bytes read from this memory
system.mem_ctrls.bytes_read::cpu25.data          4608                       # Number of bytes read from this memory
system.mem_ctrls.bytes_read::cpu26.data          4608                       # Number of bytes read from this memory
system.mem_ctrls.bytes_read::cpu27.inst           128                       # Number of bytes read from this memory
system.mem_ctrls.bytes_read::cpu27.data          4544                       # Number of bytes read from this memory
system.mem_ctrls.bytes_read::cpu28.data          4672                       # Number of bytes read from this memory
system.mem_ctrls.bytes_read::cpu29.inst            64                       # Number of bytes read from this memory
system.mem_ctrls.bytes_read::cpu29.data          4608                       # Number of bytes read from this memory
system.mem_ctrls.bytes_read::cpu30.data          4480                       # Number of bytes read from this memory
system.mem_ctrls.bytes_read::cpu31.inst            64                       # Number of bytes read from this memory
system.mem_ctrls.bytes_read::cpu31.data          4544                       # Number of bytes read from this memory
system.mem_ctrls.bytes_read::total             465856                       # Number of bytes read from this memory
system.mem_ctrls.bytes_inst_read::cpu00.inst        32320                       # Number of instructions bytes read from this memory
system.mem_ctrls.bytes_inst_read::cpu01.inst         1536                       # Number of instructions bytes read from this memory
system.mem_ctrls.bytes_inst_read::cpu03.inst           64                       # Number of instructions bytes read from this memory
system.mem_ctrls.bytes_inst_read::cpu10.inst          192                       # Number of instructions bytes read from this memory
system.mem_ctrls.bytes_inst_read::cpu12.inst          320                       # Number of instructions bytes read from this memory
system.mem_ctrls.bytes_inst_read::cpu15.inst           64                       # Number of instructions bytes read from this memory
system.mem_ctrls.bytes_inst_read::cpu19.inst           64                       # Number of instructions bytes read from this memory
system.mem_ctrls.bytes_inst_read::cpu20.inst          128                       # Number of instructions bytes read from this memory
system.mem_ctrls.bytes_inst_read::cpu27.inst          128                       # Number of instructions bytes read from this memory
system.mem_ctrls.bytes_inst_read::cpu29.inst           64                       # Number of instructions bytes read from this memory
system.mem_ctrls.bytes_inst_read::cpu31.inst           64                       # Number of instructions bytes read from this memory
system.mem_ctrls.bytes_inst_read::total         34944                       # Number of instructions bytes read from this memory
system.mem_ctrls.bytes_written::writebacks         9600                       # Number of bytes written to this memory
system.mem_ctrls.bytes_written::total            9600                       # Number of bytes written to this memory
system.mem_ctrls.num_reads::cpu00.inst            505                       # Number of read requests responded to by this memory
system.mem_ctrls.num_reads::cpu00.data           4521                       # Number of read requests responded to by this memory
system.mem_ctrls.num_reads::cpu01.inst             24                       # Number of read requests responded to by this memory
system.mem_ctrls.num_reads::cpu01.data             72                       # Number of read requests responded to by this memory
system.mem_ctrls.num_reads::cpu02.data             85                       # Number of read requests responded to by this memory
system.mem_ctrls.num_reads::cpu03.inst              1                       # Number of read requests responded to by this memory
system.mem_ctrls.num_reads::cpu03.data             76                       # Number of read requests responded to by this memory
system.mem_ctrls.num_reads::cpu04.data             70                       # Number of read requests responded to by this memory
system.mem_ctrls.num_reads::cpu05.data             71                       # Number of read requests responded to by this memory
system.mem_ctrls.num_reads::cpu06.data             69                       # Number of read requests responded to by this memory
system.mem_ctrls.num_reads::cpu07.data             70                       # Number of read requests responded to by this memory
system.mem_ctrls.num_reads::cpu08.data             70                       # Number of read requests responded to by this memory
system.mem_ctrls.num_reads::cpu09.data             71                       # Number of read requests responded to by this memory
system.mem_ctrls.num_reads::cpu10.inst              3                       # Number of read requests responded to by this memory
system.mem_ctrls.num_reads::cpu10.data             71                       # Number of read requests responded to by this memory
system.mem_ctrls.num_reads::cpu11.data             71                       # Number of read requests responded to by this memory
system.mem_ctrls.num_reads::cpu12.inst              5                       # Number of read requests responded to by this memory
system.mem_ctrls.num_reads::cpu12.data             72                       # Number of read requests responded to by this memory
system.mem_ctrls.num_reads::cpu13.data             70                       # Number of read requests responded to by this memory
system.mem_ctrls.num_reads::cpu14.data             69                       # Number of read requests responded to by this memory
system.mem_ctrls.num_reads::cpu15.inst              1                       # Number of read requests responded to by this memory
system.mem_ctrls.num_reads::cpu15.data             71                       # Number of read requests responded to by this memory
system.mem_ctrls.num_reads::cpu16.data             70                       # Number of read requests responded to by this memory
system.mem_ctrls.num_reads::cpu17.data             71                       # Number of read requests responded to by this memory
system.mem_ctrls.num_reads::cpu18.data             71                       # Number of read requests responded to by this memory
system.mem_ctrls.num_reads::cpu19.inst              1                       # Number of read requests responded to by this memory
system.mem_ctrls.num_reads::cpu19.data             70                       # Number of read requests responded to by this memory
system.mem_ctrls.num_reads::cpu20.inst              2                       # Number of read requests responded to by this memory
system.mem_ctrls.num_reads::cpu20.data             72                       # Number of read requests responded to by this memory
system.mem_ctrls.num_reads::cpu21.data             69                       # Number of read requests responded to by this memory
system.mem_ctrls.num_reads::cpu22.data             69                       # Number of read requests responded to by this memory
system.mem_ctrls.num_reads::cpu23.data             71                       # Number of read requests responded to by this memory
system.mem_ctrls.num_reads::cpu24.data             70                       # Number of read requests responded to by this memory
system.mem_ctrls.num_reads::cpu25.data             72                       # Number of read requests responded to by this memory
system.mem_ctrls.num_reads::cpu26.data             72                       # Number of read requests responded to by this memory
system.mem_ctrls.num_reads::cpu27.inst              2                       # Number of read requests responded to by this memory
system.mem_ctrls.num_reads::cpu27.data             71                       # Number of read requests responded to by this memory
system.mem_ctrls.num_reads::cpu28.data             73                       # Number of read requests responded to by this memory
system.mem_ctrls.num_reads::cpu29.inst              1                       # Number of read requests responded to by this memory
system.mem_ctrls.num_reads::cpu29.data             72                       # Number of read requests responded to by this memory
system.mem_ctrls.num_reads::cpu30.data             70                       # Number of read requests responded to by this memory
system.mem_ctrls.num_reads::cpu31.inst              1                       # Number of read requests responded to by this memory
system.mem_ctrls.num_reads::cpu31.data             71                       # Number of read requests responded to by this memory
system.mem_ctrls.num_reads::total                7279                       # Number of read requests responded to by this memory
system.mem_ctrls.num_writes::writebacks           150                       # Number of write requests responded to by this memory
system.mem_ctrls.num_writes::total                150                       # Number of write requests responded to by this memory
system.mem_ctrls.bw_read::cpu00.inst         22101080                       # Total read bandwidth from this memory (bytes/s)
system.mem_ctrls.bw_read::cpu00.data        197859368                       # Total read bandwidth from this memory (bytes/s)
system.mem_ctrls.bw_read::cpu01.inst          1050348                       # Total read bandwidth from this memory (bytes/s)
system.mem_ctrls.bw_read::cpu01.data          3151045                       # Total read bandwidth from this memory (bytes/s)
system.mem_ctrls.bw_read::cpu02.data          3719984                       # Total read bandwidth from this memory (bytes/s)
system.mem_ctrls.bw_read::cpu03.inst            43765                       # Total read bandwidth from this memory (bytes/s)
system.mem_ctrls.bw_read::cpu03.data          3326103                       # Total read bandwidth from this memory (bytes/s)
system.mem_ctrls.bw_read::cpu04.data          3063516                       # Total read bandwidth from this memory (bytes/s)
system.mem_ctrls.bw_read::cpu05.data          3107281                       # Total read bandwidth from this memory (bytes/s)
system.mem_ctrls.bw_read::cpu06.data          3019751                       # Total read bandwidth from this memory (bytes/s)
system.mem_ctrls.bw_read::cpu07.data          3063516                       # Total read bandwidth from this memory (bytes/s)
system.mem_ctrls.bw_read::cpu08.data          3063516                       # Total read bandwidth from this memory (bytes/s)
system.mem_ctrls.bw_read::cpu09.data          3107281                       # Total read bandwidth from this memory (bytes/s)
system.mem_ctrls.bw_read::cpu10.inst           131294                       # Total read bandwidth from this memory (bytes/s)
system.mem_ctrls.bw_read::cpu10.data          3107281                       # Total read bandwidth from this memory (bytes/s)
system.mem_ctrls.bw_read::cpu11.data          3107281                       # Total read bandwidth from this memory (bytes/s)
system.mem_ctrls.bw_read::cpu12.inst           218823                       # Total read bandwidth from this memory (bytes/s)
system.mem_ctrls.bw_read::cpu12.data          3151045                       # Total read bandwidth from this memory (bytes/s)
system.mem_ctrls.bw_read::cpu13.data          3063516                       # Total read bandwidth from this memory (bytes/s)
system.mem_ctrls.bw_read::cpu14.data          3019751                       # Total read bandwidth from this memory (bytes/s)
system.mem_ctrls.bw_read::cpu15.inst            43765                       # Total read bandwidth from this memory (bytes/s)
system.mem_ctrls.bw_read::cpu15.data          3107281                       # Total read bandwidth from this memory (bytes/s)
system.mem_ctrls.bw_read::cpu16.data          3063516                       # Total read bandwidth from this memory (bytes/s)
system.mem_ctrls.bw_read::cpu17.data          3107281                       # Total read bandwidth from this memory (bytes/s)
system.mem_ctrls.bw_read::cpu18.data          3107281                       # Total read bandwidth from this memory (bytes/s)
system.mem_ctrls.bw_read::cpu19.inst            43765                       # Total read bandwidth from this memory (bytes/s)
system.mem_ctrls.bw_read::cpu19.data          3063516                       # Total read bandwidth from this memory (bytes/s)
system.mem_ctrls.bw_read::cpu20.inst            87529                       # Total read bandwidth from this memory (bytes/s)
system.mem_ctrls.bw_read::cpu20.data          3151045                       # Total read bandwidth from this memory (bytes/s)
system.mem_ctrls.bw_read::cpu21.data          3019751                       # Total read bandwidth from this memory (bytes/s)
system.mem_ctrls.bw_read::cpu22.data          3019751                       # Total read bandwidth from this memory (bytes/s)
system.mem_ctrls.bw_read::cpu23.data          3107281                       # Total read bandwidth from this memory (bytes/s)
system.mem_ctrls.bw_read::cpu24.data          3063516                       # Total read bandwidth from this memory (bytes/s)
system.mem_ctrls.bw_read::cpu25.data          3151045                       # Total read bandwidth from this memory (bytes/s)
system.mem_ctrls.bw_read::cpu26.data          3151045                       # Total read bandwidth from this memory (bytes/s)
system.mem_ctrls.bw_read::cpu27.inst            87529                       # Total read bandwidth from this memory (bytes/s)
system.mem_ctrls.bw_read::cpu27.data          3107281                       # Total read bandwidth from this memory (bytes/s)
system.mem_ctrls.bw_read::cpu28.data          3194810                       # Total read bandwidth from this memory (bytes/s)
system.mem_ctrls.bw_read::cpu29.inst            43765                       # Total read bandwidth from this memory (bytes/s)
system.mem_ctrls.bw_read::cpu29.data          3151045                       # Total read bandwidth from this memory (bytes/s)
system.mem_ctrls.bw_read::cpu30.data          3063516                       # Total read bandwidth from this memory (bytes/s)
system.mem_ctrls.bw_read::cpu31.inst            43765                       # Total read bandwidth from this memory (bytes/s)
system.mem_ctrls.bw_read::cpu31.data          3107281                       # Total read bandwidth from this memory (bytes/s)
system.mem_ctrls.bw_read::total             318561898                       # Total read bandwidth from this memory (bytes/s)
system.mem_ctrls.bw_inst_read::cpu00.inst     22101080                       # Instruction read bandwidth from this memory (bytes/s)
system.mem_ctrls.bw_inst_read::cpu01.inst      1050348                       # Instruction read bandwidth from this memory (bytes/s)
system.mem_ctrls.bw_inst_read::cpu03.inst        43765                       # Instruction read bandwidth from this memory (bytes/s)
system.mem_ctrls.bw_inst_read::cpu10.inst       131294                       # Instruction read bandwidth from this memory (bytes/s)
system.mem_ctrls.bw_inst_read::cpu12.inst       218823                       # Instruction read bandwidth from this memory (bytes/s)
system.mem_ctrls.bw_inst_read::cpu15.inst        43765                       # Instruction read bandwidth from this memory (bytes/s)
system.mem_ctrls.bw_inst_read::cpu19.inst        43765                       # Instruction read bandwidth from this memory (bytes/s)
system.mem_ctrls.bw_inst_read::cpu20.inst        87529                       # Instruction read bandwidth from this memory (bytes/s)
system.mem_ctrls.bw_inst_read::cpu27.inst        87529                       # Instruction read bandwidth from this memory (bytes/s)
system.mem_ctrls.bw_inst_read::cpu29.inst        43765                       # Instruction read bandwidth from this memory (bytes/s)
system.mem_ctrls.bw_inst_read::cpu31.inst        43765                       # Instruction read bandwidth from this memory (bytes/s)
system.mem_ctrls.bw_inst_read::total         23895425                       # Instruction read bandwidth from this memory (bytes/s)
system.mem_ctrls.bw_write::writebacks         6564677                       # Write bandwidth from this memory (bytes/s)
system.mem_ctrls.bw_write::total              6564677                       # Write bandwidth from this memory (bytes/s)
system.mem_ctrls.bw_total::writebacks         6564677                       # Total bandwidth to/from this memory (bytes/s)
system.mem_ctrls.bw_total::cpu00.inst        22101080                       # Total bandwidth to/from this memory (bytes/s)
system.mem_ctrls.bw_total::cpu00.data       197859368                       # Total bandwidth to/from this memory (bytes/s)
system.mem_ctrls.bw_total::cpu01.inst         1050348                       # Total bandwidth to/from this memory (bytes/s)
system.mem_ctrls.bw_total::cpu01.data         3151045                       # Total bandwidth to/from this memory (bytes/s)
system.mem_ctrls.bw_total::cpu02.data         3719984                       # Total bandwidth to/from this memory (bytes/s)
system.mem_ctrls.bw_total::cpu03.inst           43765                       # Total bandwidth to/from this memory (bytes/s)
system.mem_ctrls.bw_total::cpu03.data         3326103                       # Total bandwidth to/from this memory (bytes/s)
system.mem_ctrls.bw_total::cpu04.data         3063516                       # Total bandwidth to/from this memory (bytes/s)
system.mem_ctrls.bw_total::cpu05.data         3107281                       # Total bandwidth to/from this memory (bytes/s)
system.mem_ctrls.bw_total::cpu06.data         3019751                       # Total bandwidth to/from this memory (bytes/s)
system.mem_ctrls.bw_total::cpu07.data         3063516                       # Total bandwidth to/from this memory (bytes/s)
system.mem_ctrls.bw_total::cpu08.data         3063516                       # Total bandwidth to/from this memory (bytes/s)
system.mem_ctrls.bw_total::cpu09.data         3107281                       # Total bandwidth to/from this memory (bytes/s)
system.mem_ctrls.bw_total::cpu10.inst          131294                       # Total bandwidth to/from this memory (bytes/s)
system.mem_ctrls.bw_total::cpu10.data         3107281                       # Total bandwidth to/from this memory (bytes/s)
system.mem_ctrls.bw_total::cpu11.data         3107281                       # Total bandwidth to/from this memory (bytes/s)
system.mem_ctrls.bw_total::cpu12.inst          218823                       # Total bandwidth to/from this memory (bytes/s)
system.mem_ctrls.bw_total::cpu12.data         3151045                       # Total bandwidth to/from this memory (bytes/s)
system.mem_ctrls.bw_total::cpu13.data         3063516                       # Total bandwidth to/from this memory (bytes/s)
system.mem_ctrls.bw_total::cpu14.data         3019751                       # Total bandwidth to/from this memory (bytes/s)
system.mem_ctrls.bw_total::cpu15.inst           43765                       # Total bandwidth to/from this memory (bytes/s)
system.mem_ctrls.bw_total::cpu15.data         3107281                       # Total bandwidth to/from this memory (bytes/s)
system.mem_ctrls.bw_total::cpu16.data         3063516                       # Total bandwidth to/from this memory (bytes/s)
system.mem_ctrls.bw_total::cpu17.data         3107281                       # Total bandwidth to/from this memory (bytes/s)
system.mem_ctrls.bw_total::cpu18.data         3107281                       # Total bandwidth to/from this memory (bytes/s)
system.mem_ctrls.bw_total::cpu19.inst           43765                       # Total bandwidth to/from this memory (bytes/s)
system.mem_ctrls.bw_total::cpu19.data         3063516                       # Total bandwidth to/from this memory (bytes/s)
system.mem_ctrls.bw_total::cpu20.inst           87529                       # Total bandwidth to/from this memory (bytes/s)
system.mem_ctrls.bw_total::cpu20.data         3151045                       # Total bandwidth to/from this memory (bytes/s)
system.mem_ctrls.bw_total::cpu21.data         3019751                       # Total bandwidth to/from this memory (bytes/s)
system.mem_ctrls.bw_total::cpu22.data         3019751                       # Total bandwidth to/from this memory (bytes/s)
system.mem_ctrls.bw_total::cpu23.data         3107281                       # Total bandwidth to/from this memory (bytes/s)
system.mem_ctrls.bw_total::cpu24.data         3063516                       # Total bandwidth to/from this memory (bytes/s)
system.mem_ctrls.bw_total::cpu25.data         3151045                       # Total bandwidth to/from this memory (bytes/s)
system.mem_ctrls.bw_total::cpu26.data         3151045                       # Total bandwidth to/from this memory (bytes/s)
system.mem_ctrls.bw_total::cpu27.inst           87529                       # Total bandwidth to/from this memory (bytes/s)
system.mem_ctrls.bw_total::cpu27.data         3107281                       # Total bandwidth to/from this memory (bytes/s)
system.mem_ctrls.bw_total::cpu28.data         3194810                       # Total bandwidth to/from this memory (bytes/s)
system.mem_ctrls.bw_total::cpu29.inst           43765                       # Total bandwidth to/from this memory (bytes/s)
system.mem_ctrls.bw_total::cpu29.data         3151045                       # Total bandwidth to/from this memory (bytes/s)
system.mem_ctrls.bw_total::cpu30.data         3063516                       # Total bandwidth to/from this memory (bytes/s)
system.mem_ctrls.bw_total::cpu31.inst           43765                       # Total bandwidth to/from this memory (bytes/s)
system.mem_ctrls.bw_total::cpu31.data         3107281                       # Total bandwidth to/from this memory (bytes/s)
system.mem_ctrls.bw_total::total            325126575                       # Total bandwidth to/from this memory (bytes/s)
system.mem_ctrls.readReqs                        7279                       # Number of read requests accepted
system.mem_ctrls.writeReqs                        150                       # Number of write requests accepted
system.mem_ctrls.readBursts                      7279                       # Number of DRAM read bursts, including those serviced by the write queue
system.mem_ctrls.writeBursts                      150                       # Number of DRAM write bursts, including those merged in the write queue
system.mem_ctrls.bytesReadDRAM                 461568                       # Total number of bytes read from DRAM
system.mem_ctrls.bytesReadWrQ                    4288                       # Total number of bytes read from write queue
system.mem_ctrls.bytesWritten                    7744                       # Total number of bytes written to DRAM
system.mem_ctrls.bytesReadSys                  465856                       # Total read bytes from the system interface side
system.mem_ctrls.bytesWrittenSys                 9600                       # Total written bytes from the system interface side
system.mem_ctrls.servicedByWrQ                     67                       # Number of DRAM read bursts serviced by the write queue
system.mem_ctrls.mergedWrBursts                     7                       # Number of DRAM write bursts merged with an existing one
system.mem_ctrls.neitherReadNorWriteReqs           10                       # Number of requests that are neither read nor write
system.mem_ctrls.perBankRdBursts::0               509                       # Per bank write bursts
system.mem_ctrls.perBankRdBursts::1               522                       # Per bank write bursts
system.mem_ctrls.perBankRdBursts::2               518                       # Per bank write bursts
system.mem_ctrls.perBankRdBursts::3               505                       # Per bank write bursts
system.mem_ctrls.perBankRdBursts::4               414                       # Per bank write bursts
system.mem_ctrls.perBankRdBursts::5               626                       # Per bank write bursts
system.mem_ctrls.perBankRdBursts::6               465                       # Per bank write bursts
system.mem_ctrls.perBankRdBursts::7               415                       # Per bank write bursts
system.mem_ctrls.perBankRdBursts::8               398                       # Per bank write bursts
system.mem_ctrls.perBankRdBursts::9               394                       # Per bank write bursts
system.mem_ctrls.perBankRdBursts::10              384                       # Per bank write bursts
system.mem_ctrls.perBankRdBursts::11              396                       # Per bank write bursts
system.mem_ctrls.perBankRdBursts::12              390                       # Per bank write bursts
system.mem_ctrls.perBankRdBursts::13              417                       # Per bank write bursts
system.mem_ctrls.perBankRdBursts::14              422                       # Per bank write bursts
system.mem_ctrls.perBankRdBursts::15              437                       # Per bank write bursts
system.mem_ctrls.perBankWrBursts::0                 0                       # Per bank write bursts
system.mem_ctrls.perBankWrBursts::1                 0                       # Per bank write bursts
system.mem_ctrls.perBankWrBursts::2                 0                       # Per bank write bursts
system.mem_ctrls.perBankWrBursts::3                 0                       # Per bank write bursts
system.mem_ctrls.perBankWrBursts::4                 0                       # Per bank write bursts
system.mem_ctrls.perBankWrBursts::5               121                       # Per bank write bursts
system.mem_ctrls.perBankWrBursts::6                 0                       # Per bank write bursts
system.mem_ctrls.perBankWrBursts::7                 0                       # Per bank write bursts
system.mem_ctrls.perBankWrBursts::8                 0                       # Per bank write bursts
system.mem_ctrls.perBankWrBursts::9                 0                       # Per bank write bursts
system.mem_ctrls.perBankWrBursts::10                0                       # Per bank write bursts
system.mem_ctrls.perBankWrBursts::11                0                       # Per bank write bursts
system.mem_ctrls.perBankWrBursts::12                0                       # Per bank write bursts
system.mem_ctrls.perBankWrBursts::13                0                       # Per bank write bursts
system.mem_ctrls.perBankWrBursts::14                0                       # Per bank write bursts
system.mem_ctrls.perBankWrBursts::15                0                       # Per bank write bursts
system.mem_ctrls.numRdRetry                         0                       # Number of times read queue was full causing retry
system.mem_ctrls.numWrRetry                         0                       # Number of times write queue was full causing retry
system.mem_ctrls.totGap                    1462328500                       # Total gap between requests
system.mem_ctrls.readPktSize::0                     0                       # Read request sizes (log2)
system.mem_ctrls.readPktSize::1                     0                       # Read request sizes (log2)
system.mem_ctrls.readPktSize::2                     0                       # Read request sizes (log2)
system.mem_ctrls.readPktSize::3                     0                       # Read request sizes (log2)
system.mem_ctrls.readPktSize::4                     0                       # Read request sizes (log2)
system.mem_ctrls.readPktSize::5                     0                       # Read request sizes (log2)
system.mem_ctrls.readPktSize::6                  7279                       # Read request sizes (log2)
system.mem_ctrls.writePktSize::0                    0                       # Write request sizes (log2)
system.mem_ctrls.writePktSize::1                    0                       # Write request sizes (log2)
system.mem_ctrls.writePktSize::2                    0                       # Write request sizes (log2)
system.mem_ctrls.writePktSize::3                    0                       # Write request sizes (log2)
system.mem_ctrls.writePktSize::4                    0                       # Write request sizes (log2)
system.mem_ctrls.writePktSize::5                    0                       # Write request sizes (log2)
system.mem_ctrls.writePktSize::6                  150                       # Write request sizes (log2)
system.mem_ctrls.rdQLenPdf::0                    5298                       # What read queue length does an incoming req see
system.mem_ctrls.rdQLenPdf::1                    1206                       # What read queue length does an incoming req see
system.mem_ctrls.rdQLenPdf::2                     392                       # What read queue length does an incoming req see
system.mem_ctrls.rdQLenPdf::3                     147                       # What read queue length does an incoming req see
system.mem_ctrls.rdQLenPdf::4                      52                       # What read queue length does an incoming req see
system.mem_ctrls.rdQLenPdf::5                      22                       # What read queue length does an incoming req see
system.mem_ctrls.rdQLenPdf::6                      19                       # What read queue length does an incoming req see
system.mem_ctrls.rdQLenPdf::7                      15                       # What read queue length does an incoming req see
system.mem_ctrls.rdQLenPdf::8                      11                       # What read queue length does an incoming req see
system.mem_ctrls.rdQLenPdf::9                       9                       # What read queue length does an incoming req see
system.mem_ctrls.rdQLenPdf::10                      7                       # What read queue length does an incoming req see
system.mem_ctrls.rdQLenPdf::11                      6                       # What read queue length does an incoming req see
system.mem_ctrls.rdQLenPdf::12                      4                       # What read queue length does an incoming req see
system.mem_ctrls.rdQLenPdf::13                      6                       # What read queue length does an incoming req see
system.mem_ctrls.rdQLenPdf::14                      5                       # What read queue length does an incoming req see
system.mem_ctrls.rdQLenPdf::15                      1                       # What read queue length does an incoming req see
system.mem_ctrls.rdQLenPdf::16                      3                       # What read queue length does an incoming req see
system.mem_ctrls.rdQLenPdf::17                      1                       # What read queue length does an incoming req see
system.mem_ctrls.rdQLenPdf::18                      1                       # What read queue length does an incoming req see
system.mem_ctrls.rdQLenPdf::19                      7                       # What read queue length does an incoming req see
system.mem_ctrls.rdQLenPdf::20                      0                       # What read queue length does an incoming req see
system.mem_ctrls.rdQLenPdf::21                      0                       # What read queue length does an incoming req see
system.mem_ctrls.rdQLenPdf::22                      0                       # What read queue length does an incoming req see
system.mem_ctrls.rdQLenPdf::23                      0                       # What read queue length does an incoming req see
system.mem_ctrls.rdQLenPdf::24                      0                       # What read queue length does an incoming req see
system.mem_ctrls.rdQLenPdf::25                      0                       # What read queue length does an incoming req see
system.mem_ctrls.rdQLenPdf::26                      0                       # What read queue length does an incoming req see
system.mem_ctrls.rdQLenPdf::27                      0                       # What read queue length does an incoming req see
system.mem_ctrls.rdQLenPdf::28                      0                       # What read queue length does an incoming req see
system.mem_ctrls.rdQLenPdf::29                      0                       # What read queue length does an incoming req see
system.mem_ctrls.rdQLenPdf::30                      0                       # What read queue length does an incoming req see
system.mem_ctrls.rdQLenPdf::31                      0                       # What read queue length does an incoming req see
system.mem_ctrls.wrQLenPdf::0                       1                       # What write queue length does an incoming req see
system.mem_ctrls.wrQLenPdf::1                       1                       # What write queue length does an incoming req see
system.mem_ctrls.wrQLenPdf::2                       1                       # What write queue length does an incoming req see
system.mem_ctrls.wrQLenPdf::3                       1                       # What write queue length does an incoming req see
system.mem_ctrls.wrQLenPdf::4                       1                       # What write queue length does an incoming req see
system.mem_ctrls.wrQLenPdf::5                       1                       # What write queue length does an incoming req see
system.mem_ctrls.wrQLenPdf::6                       1                       # What write queue length does an incoming req see
system.mem_ctrls.wrQLenPdf::7                       1                       # What write queue length does an incoming req see
system.mem_ctrls.wrQLenPdf::8                       1                       # What write queue length does an incoming req see
system.mem_ctrls.wrQLenPdf::9                       1                       # What write queue length does an incoming req see
system.mem_ctrls.wrQLenPdf::10                      1                       # What write queue length does an incoming req see
system.mem_ctrls.wrQLenPdf::11                      1                       # What write queue length does an incoming req see
system.mem_ctrls.wrQLenPdf::12                      1                       # What write queue length does an incoming req see
system.mem_ctrls.wrQLenPdf::13                      1                       # What write queue length does an incoming req see
system.mem_ctrls.wrQLenPdf::14                      1                       # What write queue length does an incoming req see
system.mem_ctrls.wrQLenPdf::15                      5                       # What write queue length does an incoming req see
system.mem_ctrls.wrQLenPdf::16                      5                       # What write queue length does an incoming req see
system.mem_ctrls.wrQLenPdf::17                      5                       # What write queue length does an incoming req see
system.mem_ctrls.wrQLenPdf::18                      6                       # What write queue length does an incoming req see
system.mem_ctrls.wrQLenPdf::19                      7                       # What write queue length does an incoming req see
system.mem_ctrls.wrQLenPdf::20                      7                       # What write queue length does an incoming req see
system.mem_ctrls.wrQLenPdf::21                      7                       # What write queue length does an incoming req see
system.mem_ctrls.wrQLenPdf::22                      6                       # What write queue length does an incoming req see
system.mem_ctrls.wrQLenPdf::23                      7                       # What write queue length does an incoming req see
system.mem_ctrls.wrQLenPdf::24                      7                       # What write queue length does an incoming req see
system.mem_ctrls.wrQLenPdf::25                      7                       # What write queue length does an incoming req see
system.mem_ctrls.wrQLenPdf::26                      7                       # What write queue length does an incoming req see
system.mem_ctrls.wrQLenPdf::27                      9                       # What write queue length does an incoming req see
system.mem_ctrls.wrQLenPdf::28                      7                       # What write queue length does an incoming req see
system.mem_ctrls.wrQLenPdf::29                      8                       # What write queue length does an incoming req see
system.mem_ctrls.wrQLenPdf::30                      8                       # What write queue length does an incoming req see
system.mem_ctrls.wrQLenPdf::31                      7                       # What write queue length does an incoming req see
system.mem_ctrls.wrQLenPdf::32                      7                       # What write queue length does an incoming req see
system.mem_ctrls.wrQLenPdf::33                      3                       # What write queue length does an incoming req see
system.mem_ctrls.wrQLenPdf::34                      2                       # What write queue length does an incoming req see
system.mem_ctrls.wrQLenPdf::35                      1                       # What write queue length does an incoming req see
system.mem_ctrls.wrQLenPdf::36                      0                       # What write queue length does an incoming req see
system.mem_ctrls.wrQLenPdf::37                      0                       # What write queue length does an incoming req see
system.mem_ctrls.wrQLenPdf::38                      0                       # What write queue length does an incoming req see
system.mem_ctrls.wrQLenPdf::39                      0                       # What write queue length does an incoming req see
system.mem_ctrls.wrQLenPdf::40                      0                       # What write queue length does an incoming req see
system.mem_ctrls.wrQLenPdf::41                      0                       # What write queue length does an incoming req see
system.mem_ctrls.wrQLenPdf::42                      0                       # What write queue length does an incoming req see
system.mem_ctrls.wrQLenPdf::43                      0                       # What write queue length does an incoming req see
system.mem_ctrls.wrQLenPdf::44                      0                       # What write queue length does an incoming req see
system.mem_ctrls.wrQLenPdf::45                      0                       # What write queue length does an incoming req see
system.mem_ctrls.wrQLenPdf::46                      0                       # What write queue length does an incoming req see
system.mem_ctrls.wrQLenPdf::47                      0                       # What write queue length does an incoming req see
system.mem_ctrls.wrQLenPdf::48                      0                       # What write queue length does an incoming req see
system.mem_ctrls.wrQLenPdf::49                      0                       # What write queue length does an incoming req see
system.mem_ctrls.wrQLenPdf::50                      0                       # What write queue length does an incoming req see
system.mem_ctrls.wrQLenPdf::51                      0                       # What write queue length does an incoming req see
system.mem_ctrls.wrQLenPdf::52                      0                       # What write queue length does an incoming req see
system.mem_ctrls.wrQLenPdf::53                      0                       # What write queue length does an incoming req see
system.mem_ctrls.wrQLenPdf::54                      0                       # What write queue length does an incoming req see
system.mem_ctrls.wrQLenPdf::55                      0                       # What write queue length does an incoming req see
system.mem_ctrls.wrQLenPdf::56                      0                       # What write queue length does an incoming req see
system.mem_ctrls.wrQLenPdf::57                      0                       # What write queue length does an incoming req see
system.mem_ctrls.wrQLenPdf::58                      0                       # What write queue length does an incoming req see
system.mem_ctrls.wrQLenPdf::59                      0                       # What write queue length does an incoming req see
system.mem_ctrls.wrQLenPdf::60                      0                       # What write queue length does an incoming req see
system.mem_ctrls.wrQLenPdf::61                      0                       # What write queue length does an incoming req see
system.mem_ctrls.wrQLenPdf::62                      0                       # What write queue length does an incoming req see
system.mem_ctrls.wrQLenPdf::63                      0                       # What write queue length does an incoming req see
system.mem_ctrls.bytesPerActivate::samples         1824                       # Bytes accessed per row activation
system.mem_ctrls.bytesPerActivate::mean    256.350877                       # Bytes accessed per row activation
system.mem_ctrls.bytesPerActivate::gmean   156.035922                       # Bytes accessed per row activation
system.mem_ctrls.bytesPerActivate::stdev   322.771786                       # Bytes accessed per row activation
system.mem_ctrls.bytesPerActivate::0-127          419     22.97%     22.97% # Bytes accessed per row activation
system.mem_ctrls.bytesPerActivate::128-255         1058     58.00%     80.98% # Bytes accessed per row activation
system.mem_ctrls.bytesPerActivate::256-383           36      1.97%     82.95% # Bytes accessed per row activation
system.mem_ctrls.bytesPerActivate::384-511           19      1.04%     83.99% # Bytes accessed per row activation
system.mem_ctrls.bytesPerActivate::512-639           10      0.55%     84.54% # Bytes accessed per row activation
system.mem_ctrls.bytesPerActivate::640-767           15      0.82%     85.36% # Bytes accessed per row activation
system.mem_ctrls.bytesPerActivate::768-895            7      0.38%     85.75% # Bytes accessed per row activation
system.mem_ctrls.bytesPerActivate::896-1023           11      0.60%     86.35% # Bytes accessed per row activation
system.mem_ctrls.bytesPerActivate::1024-1151          249     13.65%    100.00% # Bytes accessed per row activation
system.mem_ctrls.bytesPerActivate::total         1824                       # Bytes accessed per row activation
system.mem_ctrls.rdPerTurnAround::samples            7                       # Reads before turning the bus around for writes
system.mem_ctrls.rdPerTurnAround::mean           1018                       # Reads before turning the bus around for writes
system.mem_ctrls.rdPerTurnAround::gmean    286.651318                       # Reads before turning the bus around for writes
system.mem_ctrls.rdPerTurnAround::stdev   1889.242264                       # Reads before turning the bus around for writes
system.mem_ctrls.rdPerTurnAround::0-255             4     57.14%     57.14% # Reads before turning the bus around for writes
system.mem_ctrls.rdPerTurnAround::512-767            2     28.57%     85.71% # Reads before turning the bus around for writes
system.mem_ctrls.rdPerTurnAround::5120-5375            1     14.29%    100.00% # Reads before turning the bus around for writes
system.mem_ctrls.rdPerTurnAround::total             7                       # Reads before turning the bus around for writes
system.mem_ctrls.wrPerTurnAround::samples            7                       # Writes before turning the bus around for reads
system.mem_ctrls.wrPerTurnAround::mean      17.285714                       # Writes before turning the bus around for reads
system.mem_ctrls.wrPerTurnAround::gmean     17.246638                       # Writes before turning the bus around for reads
system.mem_ctrls.wrPerTurnAround::stdev      1.253566                       # Writes before turning the bus around for reads
system.mem_ctrls.wrPerTurnAround::16                3     42.86%     42.86% # Writes before turning the bus around for reads
system.mem_ctrls.wrPerTurnAround::18                3     42.86%     85.71% # Writes before turning the bus around for reads
system.mem_ctrls.wrPerTurnAround::19                1     14.29%    100.00% # Writes before turning the bus around for reads
system.mem_ctrls.wrPerTurnAround::total             7                       # Writes before turning the bus around for reads
system.mem_ctrls.totQLat                    100210251                       # Total ticks spent queuing
system.mem_ctrls.totMemAccLat               235435251                       # Total ticks spent from burst creation until serviced by the DRAM
system.mem_ctrls.totBusLat                   36060000                       # Total ticks spent in databus transfers
system.mem_ctrls.avgQLat                     13894.93                       # Average queueing delay per DRAM burst
system.mem_ctrls.avgBusLat                    5000.00                       # Average bus latency per DRAM burst
system.mem_ctrls.avgMemAccLat                32644.93                       # Average memory access latency per DRAM burst
system.mem_ctrls.avgRdBW                       315.63                       # Average DRAM read bandwidth in MiByte/s
system.mem_ctrls.avgWrBW                         5.30                       # Average achieved write bandwidth in MiByte/s
system.mem_ctrls.avgRdBWSys                    318.56                       # Average system read bandwidth in MiByte/s
system.mem_ctrls.avgWrBWSys                      6.56                       # Average system write bandwidth in MiByte/s
system.mem_ctrls.peakBW                      12800.00                       # Theoretical peak bandwidth in MiByte/s
system.mem_ctrls.busUtil                         2.51                       # Data bus utilization in percentage
system.mem_ctrls.busUtilRead                     2.47                       # Data bus utilization in percentage for reads
system.mem_ctrls.busUtilWrite                    0.04                       # Data bus utilization in percentage for writes
system.mem_ctrls.avgRdQLen                       1.39                       # Average read queue length when enqueuing
system.mem_ctrls.avgWrQLen                      21.08                       # Average write queue length when enqueuing
system.mem_ctrls.readRowHits                     5448                       # Number of row buffer hits during reads
system.mem_ctrls.writeRowHits                      50                       # Number of row buffer hits during writes
system.mem_ctrls.readRowHitRate                 75.54                       # Row buffer hit rate for reads
system.mem_ctrls.writeRowHitRate                34.97                       # Row buffer hit rate for writes
system.mem_ctrls.avgGap                     196840.56                       # Average gap between requests
system.mem_ctrls.pageHitRate                    74.75                       # Row buffer hit rate, read and write combined
system.mem_ctrls_0.actEnergy                  8429400                       # Energy for activate commands per rank (pJ)
system.mem_ctrls_0.preEnergy                  4599375                       # Energy for precharge commands per rank (pJ)
system.mem_ctrls_0.readEnergy                30872400                       # Energy for read commands per rank (pJ)
system.mem_ctrls_0.writeEnergy                 784080                       # Energy for write commands per rank (pJ)
system.mem_ctrls_0.refreshEnergy             95100720                       # Energy for refresh commands per rank (pJ)
system.mem_ctrls_0.actBackEnergy            465431220                       # Energy for active background per rank (pJ)
system.mem_ctrls_0.preBackEnergy            465500250                       # Energy for precharge background per rank (pJ)
system.mem_ctrls_0.totalEnergy             1070717445                       # Total energy per rank (pJ)
system.mem_ctrls_0.averagePower            735.237050                       # Core power per rank (mW)
system.mem_ctrls_0.memoryStateTime::IDLE    772679250                       # Time in different power states
system.mem_ctrls_0.memoryStateTime::REF      48620000                       # Time in different power states
system.mem_ctrls_0.memoryStateTime::PRE_PDN            0                       # Time in different power states
system.mem_ctrls_0.memoryStateTime::ACT     637855750                       # Time in different power states
system.mem_ctrls_0.memoryStateTime::ACT_PDN            0                       # Time in different power states
system.mem_ctrls_1.actEnergy                  5299560                       # Energy for activate commands per rank (pJ)
system.mem_ctrls_1.preEnergy                  2891625                       # Energy for precharge commands per rank (pJ)
system.mem_ctrls_1.readEnergy                24967800                       # Energy for read commands per rank (pJ)
system.mem_ctrls_1.writeEnergy                      0                       # Energy for write commands per rank (pJ)
system.mem_ctrls_1.refreshEnergy             95100720                       # Energy for refresh commands per rank (pJ)
system.mem_ctrls_1.actBackEnergy            317294775                       # Energy for active background per rank (pJ)
system.mem_ctrls_1.preBackEnergy            595436250                       # Energy for precharge background per rank (pJ)
system.mem_ctrls_1.totalEnergy             1040990730                       # Total energy per rank (pJ)
system.mem_ctrls_1.averagePower            714.831148                       # Core power per rank (mW)
system.mem_ctrls_1.memoryStateTime::IDLE    991393250                       # Time in different power states
system.mem_ctrls_1.memoryStateTime::REF      48620000                       # Time in different power states
system.mem_ctrls_1.memoryStateTime::PRE_PDN            0                       # Time in different power states
system.mem_ctrls_1.memoryStateTime::ACT     419998250                       # Time in different power states
system.mem_ctrls_1.memoryStateTime::ACT_PDN            0                       # Time in different power states
system.cpu00.branchPred.lookups                111420                       # Number of BP lookups
system.cpu00.branchPred.condPredicted          108619                       # Number of conditional branches predicted
system.cpu00.branchPred.condIncorrect            1736                       # Number of conditional branches incorrect
system.cpu00.branchPred.BTBLookups             108921                       # Number of BTB lookups
system.cpu00.branchPred.BTBHits                105118                       # Number of BTB hits
system.cpu00.branchPred.BTBCorrect                  0                       # Number of correct BTB predictions (this stat may not work properly.
system.cpu00.branchPred.BTBHitPct           96.508479                       # BTB Hit Percentage
system.cpu00.branchPred.usedRAS                  1082                       # Number of times the RAS was used to get a target.
system.cpu00.branchPred.RASInCorrect               12                       # Number of incorrect RAS predictions.
system.cpu_voltage_domain.voltage                   1                       # Voltage in Volts
system.cpu_clk_domain.clock                       500                       # Clock period in ticks
system.cpu00.dstage2_mmu.stage2_tlb.walker.walks            0                       # Table walker walks requested
system.cpu00.dstage2_mmu.stage2_tlb.walker.walkRequestOrigin_Requested::Data            0                       # Table walker requests started/completed, data/inst
system.cpu00.dstage2_mmu.stage2_tlb.walker.walkRequestOrigin_Requested::Inst            0                       # Table walker requests started/completed, data/inst
system.cpu00.dstage2_mmu.stage2_tlb.walker.walkRequestOrigin_Requested::total            0                       # Table walker requests started/completed, data/inst
system.cpu00.dstage2_mmu.stage2_tlb.walker.walkRequestOrigin_Completed::Data            0                       # Table walker requests started/completed, data/inst
system.cpu00.dstage2_mmu.stage2_tlb.walker.walkRequestOrigin_Completed::Inst            0                       # Table walker requests started/completed, data/inst
system.cpu00.dstage2_mmu.stage2_tlb.walker.walkRequestOrigin_Completed::total            0                       # Table walker requests started/completed, data/inst
system.cpu00.dstage2_mmu.stage2_tlb.walker.walkRequestOrigin::total            0                       # Table walker requests started/completed, data/inst
system.cpu00.dstage2_mmu.stage2_tlb.inst_hits            0                       # ITB inst hits
system.cpu00.dstage2_mmu.stage2_tlb.inst_misses            0                       # ITB inst misses
system.cpu00.dstage2_mmu.stage2_tlb.read_hits            0                       # DTB read hits
system.cpu00.dstage2_mmu.stage2_tlb.read_misses            0                       # DTB read misses
system.cpu00.dstage2_mmu.stage2_tlb.write_hits            0                       # DTB write hits
system.cpu00.dstage2_mmu.stage2_tlb.write_misses            0                       # DTB write misses
system.cpu00.dstage2_mmu.stage2_tlb.flush_tlb            0                       # Number of times complete TLB was flushed
system.cpu00.dstage2_mmu.stage2_tlb.flush_tlb_mva            0                       # Number of times TLB was flushed by MVA
system.cpu00.dstage2_mmu.stage2_tlb.flush_tlb_mva_asid            0                       # Number of times TLB was flushed by MVA & ASID
system.cpu00.dstage2_mmu.stage2_tlb.flush_tlb_asid            0                       # Number of times TLB was flushed by ASID
system.cpu00.dstage2_mmu.stage2_tlb.flush_entries            0                       # Number of entries that have been flushed from TLB
system.cpu00.dstage2_mmu.stage2_tlb.align_faults            0                       # Number of TLB faults due to alignment restrictions
system.cpu00.dstage2_mmu.stage2_tlb.prefetch_faults            0                       # Number of TLB faults due to prefetch
system.cpu00.dstage2_mmu.stage2_tlb.domain_faults            0                       # Number of TLB faults due to domain restrictions
system.cpu00.dstage2_mmu.stage2_tlb.perms_faults            0                       # Number of TLB faults due to permissions restrictions
system.cpu00.dstage2_mmu.stage2_tlb.read_accesses            0                       # DTB read accesses
system.cpu00.dstage2_mmu.stage2_tlb.write_accesses            0                       # DTB write accesses
system.cpu00.dstage2_mmu.stage2_tlb.inst_accesses            0                       # ITB inst accesses
system.cpu00.dstage2_mmu.stage2_tlb.hits            0                       # DTB hits
system.cpu00.dstage2_mmu.stage2_tlb.misses            0                       # DTB misses
system.cpu00.dstage2_mmu.stage2_tlb.accesses            0                       # DTB accesses
system.cpu00.dtb.walker.walks                       0                       # Table walker walks requested
system.cpu00.dtb.walker.walkRequestOrigin_Requested::Data            0                       # Table walker requests started/completed, data/inst
system.cpu00.dtb.walker.walkRequestOrigin_Requested::Inst            0                       # Table walker requests started/completed, data/inst
system.cpu00.dtb.walker.walkRequestOrigin_Requested::total            0                       # Table walker requests started/completed, data/inst
system.cpu00.dtb.walker.walkRequestOrigin_Completed::Data            0                       # Table walker requests started/completed, data/inst
system.cpu00.dtb.walker.walkRequestOrigin_Completed::Inst            0                       # Table walker requests started/completed, data/inst
system.cpu00.dtb.walker.walkRequestOrigin_Completed::total            0                       # Table walker requests started/completed, data/inst
system.cpu00.dtb.walker.walkRequestOrigin::total            0                       # Table walker requests started/completed, data/inst
system.cpu00.dtb.inst_hits                          0                       # ITB inst hits
system.cpu00.dtb.inst_misses                        0                       # ITB inst misses
system.cpu00.dtb.read_hits                          0                       # DTB read hits
system.cpu00.dtb.read_misses                        0                       # DTB read misses
system.cpu00.dtb.write_hits                         0                       # DTB write hits
system.cpu00.dtb.write_misses                       0                       # DTB write misses
system.cpu00.dtb.flush_tlb                          0                       # Number of times complete TLB was flushed
system.cpu00.dtb.flush_tlb_mva                      0                       # Number of times TLB was flushed by MVA
system.cpu00.dtb.flush_tlb_mva_asid                 0                       # Number of times TLB was flushed by MVA & ASID
system.cpu00.dtb.flush_tlb_asid                     0                       # Number of times TLB was flushed by ASID
system.cpu00.dtb.flush_entries                      0                       # Number of entries that have been flushed from TLB
system.cpu00.dtb.align_faults                       0                       # Number of TLB faults due to alignment restrictions
system.cpu00.dtb.prefetch_faults                    0                       # Number of TLB faults due to prefetch
system.cpu00.dtb.domain_faults                      0                       # Number of TLB faults due to domain restrictions
system.cpu00.dtb.perms_faults                       0                       # Number of TLB faults due to permissions restrictions
system.cpu00.dtb.read_accesses                      0                       # DTB read accesses
system.cpu00.dtb.write_accesses                     0                       # DTB write accesses
system.cpu00.dtb.inst_accesses                      0                       # ITB inst accesses
system.cpu00.dtb.hits                               0                       # DTB hits
system.cpu00.dtb.misses                             0                       # DTB misses
system.cpu00.dtb.accesses                           0                       # DTB accesses
system.cpu00.istage2_mmu.stage2_tlb.walker.walks            0                       # Table walker walks requested
system.cpu00.istage2_mmu.stage2_tlb.walker.walkRequestOrigin_Requested::Data            0                       # Table walker requests started/completed, data/inst
system.cpu00.istage2_mmu.stage2_tlb.walker.walkRequestOrigin_Requested::Inst            0                       # Table walker requests started/completed, data/inst
system.cpu00.istage2_mmu.stage2_tlb.walker.walkRequestOrigin_Requested::total            0                       # Table walker requests started/completed, data/inst
system.cpu00.istage2_mmu.stage2_tlb.walker.walkRequestOrigin_Completed::Data            0                       # Table walker requests started/completed, data/inst
system.cpu00.istage2_mmu.stage2_tlb.walker.walkRequestOrigin_Completed::Inst            0                       # Table walker requests started/completed, data/inst
system.cpu00.istage2_mmu.stage2_tlb.walker.walkRequestOrigin_Completed::total            0                       # Table walker requests started/completed, data/inst
system.cpu00.istage2_mmu.stage2_tlb.walker.walkRequestOrigin::total            0                       # Table walker requests started/completed, data/inst
system.cpu00.istage2_mmu.stage2_tlb.inst_hits            0                       # ITB inst hits
system.cpu00.istage2_mmu.stage2_tlb.inst_misses            0                       # ITB inst misses
system.cpu00.istage2_mmu.stage2_tlb.read_hits            0                       # DTB read hits
system.cpu00.istage2_mmu.stage2_tlb.read_misses            0                       # DTB read misses
system.cpu00.istage2_mmu.stage2_tlb.write_hits            0                       # DTB write hits
system.cpu00.istage2_mmu.stage2_tlb.write_misses            0                       # DTB write misses
system.cpu00.istage2_mmu.stage2_tlb.flush_tlb            0                       # Number of times complete TLB was flushed
system.cpu00.istage2_mmu.stage2_tlb.flush_tlb_mva            0                       # Number of times TLB was flushed by MVA
system.cpu00.istage2_mmu.stage2_tlb.flush_tlb_mva_asid            0                       # Number of times TLB was flushed by MVA & ASID
system.cpu00.istage2_mmu.stage2_tlb.flush_tlb_asid            0                       # Number of times TLB was flushed by ASID
system.cpu00.istage2_mmu.stage2_tlb.flush_entries            0                       # Number of entries that have been flushed from TLB
system.cpu00.istage2_mmu.stage2_tlb.align_faults            0                       # Number of TLB faults due to alignment restrictions
system.cpu00.istage2_mmu.stage2_tlb.prefetch_faults            0                       # Number of TLB faults due to prefetch
system.cpu00.istage2_mmu.stage2_tlb.domain_faults            0                       # Number of TLB faults due to domain restrictions
system.cpu00.istage2_mmu.stage2_tlb.perms_faults            0                       # Number of TLB faults due to permissions restrictions
system.cpu00.istage2_mmu.stage2_tlb.read_accesses            0                       # DTB read accesses
system.cpu00.istage2_mmu.stage2_tlb.write_accesses            0                       # DTB write accesses
system.cpu00.istage2_mmu.stage2_tlb.inst_accesses            0                       # ITB inst accesses
system.cpu00.istage2_mmu.stage2_tlb.hits            0                       # DTB hits
system.cpu00.istage2_mmu.stage2_tlb.misses            0                       # DTB misses
system.cpu00.istage2_mmu.stage2_tlb.accesses            0                       # DTB accesses
system.cpu00.itb.walker.walks                       0                       # Table walker walks requested
system.cpu00.itb.walker.walkRequestOrigin_Requested::Data            0                       # Table walker requests started/completed, data/inst
system.cpu00.itb.walker.walkRequestOrigin_Requested::Inst            0                       # Table walker requests started/completed, data/inst
system.cpu00.itb.walker.walkRequestOrigin_Requested::total            0                       # Table walker requests started/completed, data/inst
system.cpu00.itb.walker.walkRequestOrigin_Completed::Data            0                       # Table walker requests started/completed, data/inst
system.cpu00.itb.walker.walkRequestOrigin_Completed::Inst            0                       # Table walker requests started/completed, data/inst
system.cpu00.itb.walker.walkRequestOrigin_Completed::total            0                       # Table walker requests started/completed, data/inst
system.cpu00.itb.walker.walkRequestOrigin::total            0                       # Table walker requests started/completed, data/inst
system.cpu00.itb.inst_hits                          0                       # ITB inst hits
system.cpu00.itb.inst_misses                        0                       # ITB inst misses
system.cpu00.itb.read_hits                          0                       # DTB read hits
system.cpu00.itb.read_misses                        0                       # DTB read misses
system.cpu00.itb.write_hits                         0                       # DTB write hits
system.cpu00.itb.write_misses                       0                       # DTB write misses
system.cpu00.itb.flush_tlb                          0                       # Number of times complete TLB was flushed
system.cpu00.itb.flush_tlb_mva                      0                       # Number of times TLB was flushed by MVA
system.cpu00.itb.flush_tlb_mva_asid                 0                       # Number of times TLB was flushed by MVA & ASID
system.cpu00.itb.flush_tlb_asid                     0                       # Number of times TLB was flushed by ASID
system.cpu00.itb.flush_entries                      0                       # Number of entries that have been flushed from TLB
system.cpu00.itb.align_faults                       0                       # Number of TLB faults due to alignment restrictions
system.cpu00.itb.prefetch_faults                    0                       # Number of TLB faults due to prefetch
system.cpu00.itb.domain_faults                      0                       # Number of TLB faults due to domain restrictions
system.cpu00.itb.perms_faults                       0                       # Number of TLB faults due to permissions restrictions
system.cpu00.itb.read_accesses                      0                       # DTB read accesses
system.cpu00.itb.write_accesses                     0                       # DTB write accesses
system.cpu00.itb.inst_accesses                      0                       # ITB inst accesses
system.cpu00.itb.hits                               0                       # DTB hits
system.cpu00.itb.misses                             0                       # DTB misses
system.cpu00.itb.accesses                           0                       # DTB accesses
system.cpu00.workload.num_syscalls               9056                       # Number of system calls
system.cpu00.numCycles                        2924745                       # number of cpu cycles simulated
system.cpu00.numWorkItemsStarted                    0                       # number of work items this cpu started
system.cpu00.numWorkItemsCompleted                  0                       # number of work items this cpu completed
system.cpu00.fetch.icacheStallCycles           190919                       # Number of cycles fetch is stalled on an Icache miss
system.cpu00.fetch.Insts                      1407869                       # Number of instructions fetch has processed
system.cpu00.fetch.Branches                    111420                       # Number of branches that fetch encountered
system.cpu00.fetch.predictedBranches           106200                       # Number of branches that fetch has predicted taken
system.cpu00.fetch.Cycles                     2690598                       # Number of cycles fetch has run and was not squashing or blocked
system.cpu00.fetch.SquashCycles                  3689                       # Number of cycles fetch has spent squashing
system.cpu00.fetch.PendingTrapStallCycles            4                       # Number of stall cycles due to pending traps
system.cpu00.fetch.CacheLines                  176117                       # Number of cache lines fetched
system.cpu00.fetch.IcacheSquashes                 690                       # Number of outstanding Icache misses that were squashed
system.cpu00.fetch.rateDist::samples          2883365                       # Number of instructions fetched each cycle (Total)
system.cpu00.fetch.rateDist::mean            0.491539                       # Number of instructions fetched each cycle (Total)
system.cpu00.fetch.rateDist::stdev           1.633981                       # Number of instructions fetched each cycle (Total)
system.cpu00.fetch.rateDist::underflows             0      0.00%      0.00% # Number of instructions fetched each cycle (Total)
system.cpu00.fetch.rateDist::0                2591500     89.88%     89.88% # Number of instructions fetched each cycle (Total)
system.cpu00.fetch.rateDist::1                  23143      0.80%     90.68% # Number of instructions fetched each cycle (Total)
system.cpu00.fetch.rateDist::2                  42966      1.49%     92.17% # Number of instructions fetched each cycle (Total)
system.cpu00.fetch.rateDist::3                  24244      0.84%     93.01% # Number of instructions fetched each cycle (Total)
system.cpu00.fetch.rateDist::4                  42780      1.48%     94.49% # Number of instructions fetched each cycle (Total)
system.cpu00.fetch.rateDist::5                  24059      0.83%     95.33% # Number of instructions fetched each cycle (Total)
system.cpu00.fetch.rateDist::6                  38255      1.33%     96.66% # Number of instructions fetched each cycle (Total)
system.cpu00.fetch.rateDist::7                  56811      1.97%     98.63% # Number of instructions fetched each cycle (Total)
system.cpu00.fetch.rateDist::8                  39607      1.37%    100.00% # Number of instructions fetched each cycle (Total)
system.cpu00.fetch.rateDist::overflows              0      0.00%    100.00% # Number of instructions fetched each cycle (Total)
system.cpu00.fetch.rateDist::min_value              0                       # Number of instructions fetched each cycle (Total)
system.cpu00.fetch.rateDist::max_value              8                       # Number of instructions fetched each cycle (Total)
system.cpu00.fetch.rateDist::total            2883365                       # Number of instructions fetched each cycle (Total)
system.cpu00.fetch.branchRate                0.038096                       # Number of branch fetches per cycle
system.cpu00.fetch.rate                      0.481365                       # Number of inst fetches per cycle
system.cpu00.decode.IdleCycles                  75908                       # Number of cycles decode is idle
system.cpu00.decode.BlockedCycles             2623168                       # Number of cycles decode is blocked
system.cpu00.decode.RunCycles                   52228                       # Number of cycles decode is running
system.cpu00.decode.UnblockCycles              130532                       # Number of cycles decode is unblocking
system.cpu00.decode.SquashCycles                 1529                       # Number of cycles decode is squashing
system.cpu00.decode.BranchResolved               1246                       # Number of times decode resolved a branch
system.cpu00.decode.BranchMispred                 327                       # Number of times decode detected a branch misprediction
system.cpu00.decode.DecodedInsts              1378543                       # Number of instructions handled by decode
system.cpu00.decode.SquashedInsts                1194                       # Number of squashed instructions handled by decode
system.cpu00.rename.SquashCycles                 1529                       # Number of cycles rename is squashing
system.cpu00.rename.IdleCycles                 101914                       # Number of cycles rename is idle
system.cpu00.rename.BlockCycles               1785459                       # Number of cycles rename is blocking
system.cpu00.rename.serializeStallCycles        25954                       # count of cycles rename stalled for serializing inst
system.cpu00.rename.RunCycles                  124309                       # Number of cycles rename is running
system.cpu00.rename.UnblockCycles              844200                       # Number of cycles rename is unblocking
system.cpu00.rename.RenamedInsts              1373171                       # Number of instructions processed by rename
system.cpu00.rename.ROBFullEvents                  26                       # Number of times rename has blocked due to ROB full
system.cpu00.rename.IQFullEvents               546070                       # Number of times rename has blocked due to IQ full
system.cpu00.rename.LQFullEvents                21831                       # Number of times rename has blocked due to LQ full
system.cpu00.rename.SQFullEvents               258829                       # Number of times rename has blocked due to SQ full
system.cpu00.rename.RenamedOperands           1671092                       # Number of destination operands rename has renamed
system.cpu00.rename.RenameLookups             6714236                       # Number of register rename lookups that rename has made
system.cpu00.rename.int_rename_lookups        2241314                       # Number of integer rename lookups
system.cpu00.rename.fp_rename_lookups              22                       # Number of floating rename lookups
system.cpu00.rename.CommittedMaps             1638891                       # Number of HB maps that are committed
system.cpu00.rename.UndoneMaps                  32201                       # Number of HB maps that are undone due to squashing
system.cpu00.rename.serializingInsts              194                       # count of serializing insts renamed
system.cpu00.rename.tempSerializingInsts          195                       # count of temporary serializing insts renamed
system.cpu00.rename.skidInsts                  828611                       # count of insts added to the skid buffer
system.cpu00.memDep0.insertedLoads             272919                       # Number of loads inserted to the mem dependence unit.
system.cpu00.memDep0.insertedStores             74222                       # Number of stores inserted to the mem dependence unit.
system.cpu00.memDep0.conflictingLoads            1564                       # Number of conflicting loads.
system.cpu00.memDep0.conflictingStores            420                       # Number of conflicting stores.
system.cpu00.iq.iqInstsAdded                  1366473                       # Number of instructions added to the IQ (excludes non-spec)
system.cpu00.iq.iqNonSpecInstsAdded               339                       # Number of non-speculative instructions added to the IQ
system.cpu00.iq.iqInstsIssued                 2153094                       # Number of instructions issued
system.cpu00.iq.iqSquashedInstsIssued            2539                       # Number of squashed instructions issued
system.cpu00.iq.iqSquashedInstsExamined         22766                       # Number of squashed instructions iterated over during squash; mainly for profiling
system.cpu00.iq.iqSquashedOperandsExamined        83031                       # Number of squashed operands that are examined and possibly removed from graph
system.cpu00.iq.iqSquashedNonSpecRemoved           90                       # Number of squashed non-spec instructions that were removed
system.cpu00.iq.issued_per_cycle::samples      2883365                       # Number of insts issued each cycle
system.cpu00.iq.issued_per_cycle::mean       0.746730                       # Number of insts issued each cycle
system.cpu00.iq.issued_per_cycle::stdev      0.915660                       # Number of insts issued each cycle
[...]
system.tol2bus.snoop_fanout::3                      0      0.00%      0.00% # Request fanout histogram
system.tol2bus.snoop_fanout::4                      0      0.00%      0.00% # Request fanout histogram
system.tol2bus.snoop_fanout::5                      0      0.00%      0.00% # Request fanout histogram
system.tol2bus.snoop_fanout::6                      0      0.00%      0.00% # Request fanout histogram
system.tol2bus.snoop_fanout::7                      0      0.00%      0.00% # Request fanout histogram
system.tol2bus.snoop_fanout::8                      0      0.00%      0.00% # Request fanout histogram
system.tol2bus.snoop_fanout::9                      0      0.00%      0.00% # Request fanout histogram
system.tol2bus.snoop_fanout::10                     0      0.00%      0.00% # Request fanout histogram
system.tol2bus.snoop_fanout::11                     0      0.00%      0.00% # Request fanout histogram
system.tol2bus.snoop_fanout::12                     0      0.00%      0.00% # Request fanout histogram
system.tol2bus.snoop_fanout::13                     0      0.00%      0.00% # Request fanout histogram
system.tol2bus.snoop_fanout::14                     0      0.00%      0.00% # Request fanout histogram
system.tol2bus.snoop_fanout::15                     0      0.00%      0.00% # Request fanout histogram
system.tol2bus.snoop_fanout::16                     0      0.00%      0.00% # Request fanout histogram
system.tol2bus.snoop_fanout::17                     0      0.00%      0.00% # Request fanout histogram
system.tol2bus.snoop_fanout::18                     0      0.00%      0.00% # Request fanout histogram
system.tol2bus.snoop_fanout::19                     0      0.00%      0.00% # Request fanout histogram
system.tol2bus.snoop_fanout::20                     0      0.00%      0.00% # Request fanout histogram
system.tol2bus.snoop_fanout::21                     0      0.00%      0.00% # Request fanout histogram
system.tol2bus.snoop_fanout::22                     0      0.00%      0.00% # Request fanout histogram
system.tol2bus.snoop_fanout::23                     0      0.00%      0.00% # Request fanout histogram
system.tol2bus.snoop_fanout::24                     0      0.00%      0.00% # Request fanout histogram
system.tol2bus.snoop_fanout::25                     0      0.00%      0.00% # Request fanout histogram
system.tol2bus.snoop_fanout::26                     0      0.00%      0.00% # Request fanout histogram
system.tol2bus.snoop_fanout::27                     0      0.00%      0.00% # Request fanout histogram
system.tol2bus.snoop_fanout::28                     0      0.00%      0.00% # Request fanout histogram
system.tol2bus.snoop_fanout::29                     0      0.00%      0.00% # Request fanout histogram
system.tol2bus.snoop_fanout::30                     0      0.00%      0.00% # Request fanout histogram
system.tol2bus.snoop_fanout::31                     0      0.00%      0.00% # Request fanout histogram
system.tol2bus.snoop_fanout::32                     0      0.00%      0.00% # Request fanout histogram
system.tol2bus.snoop_fanout::33                     0      0.00%      0.00% # Request fanout histogram
system.tol2bus.snoop_fanout::34                     0      0.00%      0.00% # Request fanout histogram
system.tol2bus.snoop_fanout::35                     0      0.00%      0.00% # Request fanout histogram
system.tol2bus.snoop_fanout::36                     0      0.00%      0.00% # Request fanout histogram
system.tol2bus.snoop_fanout::37                     0      0.00%      0.00% # Request fanout histogram
system.tol2bus.snoop_fanout::38                     0      0.00%      0.00% # Request fanout histogram
system.tol2bus.snoop_fanout::39                     0      0.00%      0.00% # Request fanout histogram
system.tol2bus.snoop_fanout::40                     0      0.00%      0.00% # Request fanout histogram
system.tol2bus.snoop_fanout::41                     0      0.00%      0.00% # Request fanout histogram
system.tol2bus.snoop_fanout::42                     0      0.00%      0.00% # Request fanout histogram
system.tol2bus.snoop_fanout::43                     0      0.00%      0.00% # Request fanout histogram
system.tol2bus.snoop_fanout::44                     0      0.00%      0.00% # Request fanout histogram
system.tol2bus.snoop_fanout::45                     0      0.00%      0.00% # Request fanout histogram
system.tol2bus.snoop_fanout::46                     0      0.00%      0.00% # Request fanout histogram
system.tol2bus.snoop_fanout::47                     0      0.00%      0.00% # Request fanout histogram
system.tol2bus.snoop_fanout::48                     0      0.00%      0.00% # Request fanout histogram
system.tol2bus.snoop_fanout::49                     0      0.00%      0.00% # Request fanout histogram
system.tol2bus.snoop_fanout::50                     0      0.00%      0.00% # Request fanout histogram
system.tol2bus.snoop_fanout::51                     0      0.00%      0.00% # Request fanout histogram
system.tol2bus.snoop_fanout::52                     0      0.00%      0.00% # Request fanout histogram
system.tol2bus.snoop_fanout::53                     0      0.00%      0.00% # Request fanout histogram
system.tol2bus.snoop_fanout::54                     0      0.00%      0.00% # Request fanout histogram
system.tol2bus.snoop_fanout::55                     0      0.00%      0.00% # Request fanout histogram
system.tol2bus.snoop_fanout::56                     0      0.00%      0.00% # Request fanout histogram
system.tol2bus.snoop_fanout::57                     0      0.00%      0.00% # Request fanout histogram
system.tol2bus.snoop_fanout::58                     0      0.00%      0.00% # Request fanout histogram
system.tol2bus.snoop_fanout::59                     0      0.00%      0.00% # Request fanout histogram
system.tol2bus.snoop_fanout::60                     0      0.00%      0.00% # Request fanout histogram
system.tol2bus.snoop_fanout::61                     0      0.00%      0.00% # Request fanout histogram
system.tol2bus.snoop_fanout::62                     0      0.00%      0.00% # Request fanout histogram
system.tol2bus.snoop_fanout::63               2237015    100.00%    100.00% # Request fanout histogram
system.tol2bus.snoop_fanout::64                     0      0.00%    100.00% # Request fanout histogram
system.tol2bus.snoop_fanout::overflows              0      0.00%    100.00% # Request fanout histogram
system.tol2bus.snoop_fanout::min_value             63                       # Request fanout histogram
system.tol2bus.snoop_fanout::max_value             63                       # Request fanout histogram
system.tol2bus.snoop_fanout::total            2237015                       # Request fanout histogram
system.tol2bus.reqLayer0.occupancy         1212090980                       # Layer occupancy (ticks)
system.tol2bus.reqLayer0.utilization             82.9                       # Layer utilization (%)
system.tol2bus.respLayer0.occupancy           1055998                       # Layer occupancy (ticks)
system.tol2bus.respLayer0.utilization             0.1                       # Layer utilization (%)
system.tol2bus.respLayer1.occupancy         108117597                       # Layer occupancy (ticks)
system.tol2bus.respLayer1.utilization             7.4                       # Layer utilization (%)
system.tol2bus.respLayer4.occupancy             82951                       # Layer occupancy (ticks)
system.tol2bus.respLayer4.utilization             0.0                       # Layer utilization (%)
system.tol2bus.respLayer5.occupancy         100339111                       # Layer occupancy (ticks)
system.tol2bus.respLayer5.utilization             6.9                       # Layer utilization (%)
system.tol2bus.respLayer8.occupancy             88218                       # Layer occupancy (ticks)
system.tol2bus.respLayer8.utilization             0.0                       # Layer utilization (%)
system.tol2bus.respLayer9.occupancy         100315507                       # Layer occupancy (ticks)
system.tol2bus.respLayer9.utilization             6.9                       # Layer utilization (%)
system.tol2bus.respLayer12.occupancy            86229                       # Layer occupancy (ticks)
system.tol2bus.respLayer12.utilization            0.0                       # Layer utilization (%)
system.tol2bus.respLayer13.occupancy        100228912                       # Layer occupancy (ticks)
system.tol2bus.respLayer13.utilization            6.9                       # Layer utilization (%)
system.tol2bus.respLayer16.occupancy            84945                       # Layer occupancy (ticks)
system.tol2bus.respLayer16.utilization            0.0                       # Layer utilization (%)
system.tol2bus.respLayer17.occupancy        100290929                       # Layer occupancy (ticks)
system.tol2bus.respLayer17.utilization            6.9                       # Layer utilization (%)
system.tol2bus.respLayer20.occupancy            82992                       # Layer occupancy (ticks)
system.tol2bus.respLayer20.utilization            0.0                       # Layer utilization (%)
system.tol2bus.respLayer21.occupancy        100246962                       # Layer occupancy (ticks)
system.tol2bus.respLayer21.utilization            6.9                       # Layer utilization (%)
system.tol2bus.respLayer24.occupancy            81993                       # Layer occupancy (ticks)
system.tol2bus.respLayer24.utilization            0.0                       # Layer utilization (%)
system.tol2bus.respLayer25.occupancy        100285932                       # Layer occupancy (ticks)
system.tol2bus.respLayer25.utilization            6.9                       # Layer utilization (%)
system.tol2bus.respLayer28.occupancy            82246                       # Layer occupancy (ticks)
system.tol2bus.respLayer28.utilization            0.0                       # Layer utilization (%)
system.tol2bus.respLayer29.occupancy        100292363                       # Layer occupancy (ticks)
system.tol2bus.respLayer29.utilization            6.9                       # Layer utilization (%)
system.tol2bus.respLayer32.occupancy            81490                       # Layer occupancy (ticks)
system.tol2bus.respLayer32.utilization            0.0                       # Layer utilization (%)
system.tol2bus.respLayer33.occupancy        100222020                       # Layer occupancy (ticks)
system.tol2bus.respLayer33.utilization            6.9                       # Layer utilization (%)
system.tol2bus.respLayer36.occupancy            84478                       # Layer occupancy (ticks)
system.tol2bus.respLayer36.utilization            0.0                       # Layer utilization (%)
system.tol2bus.respLayer37.occupancy        100255127                       # Layer occupancy (ticks)
system.tol2bus.respLayer37.utilization            6.9                       # Layer utilization (%)
system.tol2bus.respLayer40.occupancy            84445                       # Layer occupancy (ticks)
system.tol2bus.respLayer40.utilization            0.0                       # Layer utilization (%)
system.tol2bus.respLayer41.occupancy        100236395                       # Layer occupancy (ticks)
system.tol2bus.respLayer41.utilization            6.9                       # Layer utilization (%)
system.tol2bus.respLayer44.occupancy            81745                       # Layer occupancy (ticks)
system.tol2bus.respLayer44.utilization            0.0                       # Layer utilization (%)
system.tol2bus.respLayer45.occupancy        100249915                       # Layer occupancy (ticks)
system.tol2bus.respLayer45.utilization            6.9                       # Layer utilization (%)
system.tol2bus.respLayer48.occupancy            80718                       # Layer occupancy (ticks)
system.tol2bus.respLayer48.utilization            0.0                       # Layer utilization (%)
system.tol2bus.respLayer49.occupancy        100285346                       # Layer occupancy (ticks)
system.tol2bus.respLayer49.utilization            6.9                       # Layer utilization (%)
system.tol2bus.respLayer52.occupancy            81000                       # Layer occupancy (ticks)
system.tol2bus.respLayer52.utilization            0.0                       # Layer utilization (%)
system.tol2bus.respLayer53.occupancy        100288813                       # Layer occupancy (ticks)
system.tol2bus.respLayer53.utilization            6.9                       # Layer utilization (%)
system.tol2bus.respLayer56.occupancy            82485                       # Layer occupancy (ticks)
system.tol2bus.respLayer56.utilization            0.0                       # Layer utilization (%)
system.tol2bus.respLayer57.occupancy        100262948                       # Layer occupancy (ticks)
system.tol2bus.respLayer57.utilization            6.9                       # Layer utilization (%)
system.tol2bus.respLayer60.occupancy            81227                       # Layer occupancy (ticks)
system.tol2bus.respLayer60.utilization            0.0                       # Layer utilization (%)
system.tol2bus.respLayer61.occupancy        100343002                       # Layer occupancy (ticks)
system.tol2bus.respLayer61.utilization            6.9                       # Layer utilization (%)
system.tol2bus.respLayer64.occupancy            84210                       # Layer occupancy (ticks)
system.tol2bus.respLayer64.utilization            0.0                       # Layer utilization (%)
system.tol2bus.respLayer65.occupancy        100385098                       # Layer occupancy (ticks)
system.tol2bus.respLayer65.utilization            6.9                       # Layer utilization (%)
system.tol2bus.respLayer68.occupancy            83712                       # Layer occupancy (ticks)
system.tol2bus.respLayer68.utilization            0.0                       # Layer utilization (%)
system.tol2bus.respLayer69.occupancy        100419154                       # Layer occupancy (ticks)
system.tol2bus.respLayer69.utilization            6.9                       # Layer utilization (%)
system.tol2bus.respLayer72.occupancy            81499                       # Layer occupancy (ticks)
system.tol2bus.respLayer72.utilization            0.0                       # Layer utilization (%)
system.tol2bus.respLayer73.occupancy        100232988                       # Layer occupancy (ticks)
system.tol2bus.respLayer73.utilization            6.9                       # Layer utilization (%)
system.tol2bus.respLayer76.occupancy            84711                       # Layer occupancy (ticks)
system.tol2bus.respLayer76.utilization            0.0                       # Layer utilization (%)
system.tol2bus.respLayer77.occupancy        100329456                       # Layer occupancy (ticks)
system.tol2bus.respLayer77.utilization            6.9                       # Layer utilization (%)
system.tol2bus.respLayer80.occupancy            81001                       # Layer occupancy (ticks)
system.tol2bus.respLayer80.utilization            0.0                       # Layer utilization (%)
system.tol2bus.respLayer81.occupancy        100290118                       # Layer occupancy (ticks)
system.tol2bus.respLayer81.utilization            6.9                       # Layer utilization (%)
system.tol2bus.respLayer84.occupancy            84192                       # Layer occupancy (ticks)
system.tol2bus.respLayer84.utilization            0.0                       # Layer utilization (%)
system.tol2bus.respLayer85.occupancy        100307036                       # Layer occupancy (ticks)
system.tol2bus.respLayer85.utilization            6.9                       # Layer utilization (%)
system.tol2bus.respLayer88.occupancy            86206                       # Layer occupancy (ticks)
system.tol2bus.respLayer88.utilization            0.0                       # Layer utilization (%)
system.tol2bus.respLayer89.occupancy        100290039                       # Layer occupancy (ticks)
system.tol2bus.respLayer89.utilization            6.9                       # Layer utilization (%)
system.tol2bus.respLayer92.occupancy            84701                       # Layer occupancy (ticks)
system.tol2bus.respLayer92.utilization            0.0                       # Layer utilization (%)
system.tol2bus.respLayer93.occupancy        100312304                       # Layer occupancy (ticks)
system.tol2bus.respLayer93.utilization            6.9                       # Layer utilization (%)
system.tol2bus.respLayer96.occupancy            85706                       # Layer occupancy (ticks)
system.tol2bus.respLayer96.utilization            0.0                       # Layer utilization (%)
system.tol2bus.respLayer97.occupancy        100306905                       # Layer occupancy (ticks)
system.tol2bus.respLayer97.utilization            6.9                       # Layer utilization (%)
system.tol2bus.respLayer100.occupancy           89702                       # Layer occupancy (ticks)
system.tol2bus.respLayer100.utilization           0.0                       # Layer utilization (%)
system.tol2bus.respLayer101.occupancy       100260368                       # Layer occupancy (ticks)
system.tol2bus.respLayer101.utilization           6.9                       # Layer utilization (%)
system.tol2bus.respLayer104.occupancy           81496                       # Layer occupancy (ticks)
system.tol2bus.respLayer104.utilization           0.0                       # Layer utilization (%)
system.tol2bus.respLayer105.occupancy       100306255                       # Layer occupancy (ticks)
system.tol2bus.respLayer105.utilization           6.9                       # Layer utilization (%)
system.tol2bus.respLayer108.occupancy           86738                       # Layer occupancy (ticks)
system.tol2bus.respLayer108.utilization           0.0                       # Layer utilization (%)
system.tol2bus.respLayer109.occupancy       100220975                       # Layer occupancy (ticks)
system.tol2bus.respLayer109.utilization           6.9                       # Layer utilization (%)
system.tol2bus.respLayer112.occupancy           82500                       # Layer occupancy (ticks)
system.tol2bus.respLayer112.utilization           0.0                       # Layer utilization (%)
system.tol2bus.respLayer113.occupancy       100321740                       # Layer occupancy (ticks)
system.tol2bus.respLayer113.utilization           6.9                       # Layer utilization (%)
system.tol2bus.respLayer116.occupancy           81750                       # Layer occupancy (ticks)
system.tol2bus.respLayer116.utilization           0.0                       # Layer utilization (%)
system.tol2bus.respLayer117.occupancy       100314400                       # Layer occupancy (ticks)
system.tol2bus.respLayer117.utilization           6.9                       # Layer utilization (%)
system.tol2bus.respLayer120.occupancy           81983                       # Layer occupancy (ticks)
system.tol2bus.respLayer120.utilization           0.0                       # Layer utilization (%)
system.tol2bus.respLayer121.occupancy       100268693                       # Layer occupancy (ticks)
system.tol2bus.respLayer121.utilization           6.9                       # Layer utilization (%)
system.tol2bus.respLayer124.occupancy           79501                       # Layer occupancy (ticks)
system.tol2bus.respLayer124.utilization           0.0                       # Layer utilization (%)
system.tol2bus.respLayer125.occupancy       100241432                       # Layer occupancy (ticks)
system.tol2bus.respLayer125.utilization           6.9                       # Layer utilization (%)

---------- End Simulation Statistics   ----------
