
---------- Begin Simulation Statistics ----------
sim_seconds                                  0.012053                       # Number of seconds simulated
sim_ticks                                 12053048500                       # Number of ticks simulated
final_tick                                12053048500                       # Number of ticks from beginning of simulation (restored from checkpoints and never reset)
sim_freq                                 1000000000000                       # Frequency of simulated ticks
host_inst_rate                                 179744                       # Simulator instruction rate (inst/s)
host_op_rate                                   179857                       # Simulator op (including micro ops) rate (op/s)
host_tick_rate                               67698946                       # Simulator tick rate (ticks/s)
host_mem_usage                                 652576                       # Number of bytes of host memory used
host_seconds                                   178.04                       # Real time elapsed on the host
sim_insts                                    32001371                       # Number of instructions simulated
sim_ops                                      32021475                       # Number of ops (including micro ops) simulated
system.voltage_domain.voltage                       1                       # Voltage in Volts
system.clk_domain.clock                          1000                       # Clock period in ticks
system.mem_ctrls.bytes_read::cpu.inst           34816                       # Number of bytes read from this memory
system.mem_ctrls.bytes_read::cpu.data          145664                       # Number of bytes read from this memory
system.mem_ctrls.bytes_read::l2.prefetcher       266112                       # Number of bytes read from this memory
system.mem_ctrls.bytes_read::total             446592                       # Number of bytes read from this memory
system.mem_ctrls.bytes_inst_read::cpu.inst        34816                       # Number of instructions bytes read from this memory
system.mem_ctrls.bytes_inst_read::total         34816                       # Number of instructions bytes read from this memory
system.mem_ctrls.num_reads::cpu.inst              544                       # Number of read requests responded to by this memory
system.mem_ctrls.num_reads::cpu.data             2276                       # Number of read requests responded to by this memory
system.mem_ctrls.num_reads::l2.prefetcher         4158                       # Number of read requests responded to by this memory
system.mem_ctrls.num_reads::total                6978                       # Number of read requests responded to by this memory
system.mem_ctrls.bw_read::cpu.inst            2888564                       # Total read bandwidth from this memory (bytes/s)
system.mem_ctrls.bw_read::cpu.data           12085241                       # Total read bandwidth from this memory (bytes/s)
system.mem_ctrls.bw_read::l2.prefetcher      22078398                       # Total read bandwidth from this memory (bytes/s)
system.mem_ctrls.bw_read::total              37052203                       # Total read bandwidth from this memory (bytes/s)
system.mem_ctrls.bw_inst_read::cpu.inst       2888564                       # Instruction read bandwidth from this memory (bytes/s)
system.mem_ctrls.bw_inst_read::total          2888564                       # Instruction read bandwidth from this memory (bytes/s)
system.mem_ctrls.bw_total::cpu.inst           2888564                       # Total bandwidth to/from this memory (bytes/s)
system.mem_ctrls.bw_total::cpu.data          12085241                       # Total bandwidth to/from this memory (bytes/s)
system.mem_ctrls.bw_total::l2.prefetcher     22078398                       # Total bandwidth to/from this memory (bytes/s)
system.mem_ctrls.bw_total::total             37052203                       # Total bandwidth to/from this memory (bytes/s)
system.mem_ctrls.readReqs                        6978                       # Number of read requests accepted
system.mem_ctrls.writeReqs                          0                       # Number of write requests accepted
system.mem_ctrls.readBursts                      6978                       # Number of DRAM read bursts, including those serviced by the write queue
system.mem_ctrls.writeBursts                        0                       # Number of DRAM write bursts, including those merged in the write queue
system.mem_ctrls.bytesReadDRAM                 446592                       # Total number of bytes read from DRAM
system.mem_ctrls.bytesReadWrQ                       0                       # Total number of bytes read from write queue
system.mem_ctrls.bytesWritten                       0                       # Total number of bytes written to DRAM
system.mem_ctrls.bytesReadSys                  446592                       # Total read bytes from the system interface side
system.mem_ctrls.bytesWrittenSys                    0                       # Total written bytes from the system interface side
system.mem_ctrls.servicedByWrQ                      0                       # Number of DRAM read bursts serviced by the write queue
system.mem_ctrls.mergedWrBursts                     0                       # Number of DRAM write bursts merged with an existing one
system.mem_ctrls.neitherReadNorWriteReqs            0                       # Number of requests that are neither read nor write
system.mem_ctrls.perBankRdBursts::0               533                       # Per bank write bursts
system.mem_ctrls.perBankRdBursts::1               483                       # Per bank write bursts
system.mem_ctrls.perBankRdBursts::2               505                       # Per bank write bursts
system.mem_ctrls.perBankRdBursts::3               477                       # Per bank write bursts
system.mem_ctrls.perBankRdBursts::4               434                       # Per bank write bursts
system.mem_ctrls.perBankRdBursts::5               405                       # Per bank write bursts
system.mem_ctrls.perBankRdBursts::6               483                       # Per bank write bursts
system.mem_ctrls.perBankRdBursts::7               413                       # Per bank write bursts
system.mem_ctrls.perBankRdBursts::8               400                       # Per bank write bursts
system.mem_ctrls.perBankRdBursts::9               392                       # Per bank write bursts
system.mem_ctrls.perBankRdBursts::10              384                       # Per bank write bursts
system.mem_ctrls.perBankRdBursts::11              397                       # Per bank write bursts
system.mem_ctrls.perBankRdBursts::12              389                       # Per bank write bursts
system.mem_ctrls.perBankRdBursts::13              418                       # Per bank write bursts
system.mem_ctrls.perBankRdBursts::14              422                       # Per bank write bursts
system.mem_ctrls.perBankRdBursts::15              443                       # Per bank write bursts
system.mem_ctrls.perBankWrBursts::0                 0                       # Per bank write bursts
system.mem_ctrls.perBankWrBursts::1                 0                       # Per bank write bursts
system.mem_ctrls.perBankWrBursts::2                 0                       # Per bank write bursts
system.mem_ctrls.perBankWrBursts::3                 0                       # Per bank write bursts
system.mem_ctrls.perBankWrBursts::4                 0                       # Per bank write bursts
system.mem_ctrls.perBankWrBursts::5                 0                       # Per bank write bursts
system.mem_ctrls.perBankWrBursts::6                 0                       # Per bank write bursts
system.mem_ctrls.perBankWrBursts::7                 0                       # Per bank write bursts
system.mem_ctrls.perBankWrBursts::8                 0                       # Per bank write bursts
system.mem_ctrls.perBankWrBursts::9                 0                       # Per bank write bursts
system.mem_ctrls.perBankWrBursts::10                0                       # Per bank write bursts
system.mem_ctrls.perBankWrBursts::11                0                       # Per bank write bursts
system.mem_ctrls.perBankWrBursts::12                0                       # Per bank write bursts
system.mem_ctrls.perBankWrBursts::13                0                       # Per bank write bursts
system.mem_ctrls.perBankWrBursts::14                0                       # Per bank write bursts
system.mem_ctrls.perBankWrBursts::15                0                       # Per bank write bursts
system.mem_ctrls.numRdRetry                         0                       # Number of times read queue was full causing retry
system.mem_ctrls.numWrRetry                         0                       # Number of times write queue was full causing retry
system.mem_ctrls.totGap                   12053009500                       # Total gap between requests
system.mem_ctrls.readPktSize::0                     0                       # Read request sizes (log2)
system.mem_ctrls.readPktSize::1                     0                       # Read request sizes (log2)
system.mem_ctrls.readPktSize::2                     0                       # Read request sizes (log2)
system.mem_ctrls.readPktSize::3                     0                       # Read request sizes (log2)
system.mem_ctrls.readPktSize::4                     0                       # Read request sizes (log2)
system.mem_ctrls.readPktSize::5                     0                       # Read request sizes (log2)
system.mem_ctrls.readPktSize::6                  6978                       # Read request sizes (log2)
system.mem_ctrls.writePktSize::0                    0                       # Write request sizes (log2)
system.mem_ctrls.writePktSize::1                    0                       # Write request sizes (log2)
system.mem_ctrls.writePktSize::2                    0                       # Write request sizes (log2)
system.mem_ctrls.writePktSize::3                    0                       # Write request sizes (log2)
system.mem_ctrls.writePktSize::4                    0                       # Write request sizes (log2)
system.mem_ctrls.writePktSize::5                    0                       # Write request sizes (log2)
system.mem_ctrls.writePktSize::6                    0                       # Write request sizes (log2)
system.mem_ctrls.rdQLenPdf::0                    4441                       # What read queue length does an incoming req see
system.mem_ctrls.rdQLenPdf::1                    1815                       # What read queue length does an incoming req see
system.mem_ctrls.rdQLenPdf::2                     218                       # What read queue length does an incoming req see
system.mem_ctrls.rdQLenPdf::3                      92                       # What read queue length does an incoming req see
system.mem_ctrls.rdQLenPdf::4                      82                       # What read queue length does an incoming req see
system.mem_ctrls.rdQLenPdf::5                      81                       # What read queue length does an incoming req see
system.mem_ctrls.rdQLenPdf::6                      81                       # What read queue length does an incoming req see
system.mem_ctrls.rdQLenPdf::7                      80                       # What read queue length does an incoming req see
system.mem_ctrls.rdQLenPdf::8                      80                       # What read queue length does an incoming req see
system.mem_ctrls.rdQLenPdf::9                       5                       # What read queue length does an incoming req see
system.mem_ctrls.rdQLenPdf::10                      2                       # What read queue length does an incoming req see
system.mem_ctrls.rdQLenPdf::11                      1                       # What read queue length does an incoming req see
system.mem_ctrls.rdQLenPdf::12                      0                       # What read queue length does an incoming req see
system.mem_ctrls.rdQLenPdf::13                      0                       # What read queue length does an incoming req see
system.mem_ctrls.rdQLenPdf::14                      0                       # What read queue length does an incoming req see
system.mem_ctrls.rdQLenPdf::15                      0                       # What read queue length does an incoming req see
system.mem_ctrls.rdQLenPdf::16                      0                       # What read queue length does an incoming req see
system.mem_ctrls.rdQLenPdf::17                      0                       # What read queue length does an incoming req see
system.mem_ctrls.rdQLenPdf::18                      0                       # What read queue length does an incoming req see
system.mem_ctrls.rdQLenPdf::19                      0                       # What read queue length does an incoming req see
system.mem_ctrls.rdQLenPdf::20                      0                       # What read queue length does an incoming req see
system.mem_ctrls.rdQLenPdf::21                      0                       # What read queue length does an incoming req see
system.mem_ctrls.rdQLenPdf::22                      0                       # What read queue length does an incoming req see
system.mem_ctrls.rdQLenPdf::23                      0                       # What read queue length does an incoming req see
system.mem_ctrls.rdQLenPdf::24                      0                       # What read queue length does an incoming req see
system.mem_ctrls.rdQLenPdf::25                      0                       # What read queue length does an incoming req see
system.mem_ctrls.rdQLenPdf::26                      0                       # What read queue length does an incoming req see
system.mem_ctrls.rdQLenPdf::27                      0                       # What read queue length does an incoming req see
system.mem_ctrls.rdQLenPdf::28                      0                       # What read queue length does an incoming req see
system.mem_ctrls.rdQLenPdf::29                      0                       # What read queue length does an incoming req see
system.mem_ctrls.rdQLenPdf::30                      0                       # What read queue length does an incoming req see
system.mem_ctrls.rdQLenPdf::31                      0                       # What read queue length does an incoming req see
system.mem_ctrls.wrQLenPdf::0                       0                       # What write queue length does an incoming req see
system.mem_ctrls.wrQLenPdf::1                       0                       # What write queue length does an incoming req see
system.mem_ctrls.wrQLenPdf::2                       0                       # What write queue length does an incoming req see
system.mem_ctrls.wrQLenPdf::3                       0                       # What write queue length does an incoming req see
system.mem_ctrls.wrQLenPdf::4                       0                       # What write queue length does an incoming req see
system.mem_ctrls.wrQLenPdf::5                       0                       # What write queue length does an incoming req see
system.mem_ctrls.wrQLenPdf::6                       0                       # What write queue length does an incoming req see
system.mem_ctrls.wrQLenPdf::7                       0                       # What write queue length does an incoming req see
system.mem_ctrls.wrQLenPdf::8                       0                       # What write queue length does an incoming req see
system.mem_ctrls.wrQLenPdf::9                       0                       # What write queue length does an incoming req see
system.mem_ctrls.wrQLenPdf::10                      0                       # What write queue length does an incoming req see
system.mem_ctrls.wrQLenPdf::11                      0                       # What write queue length does an incoming req see
system.mem_ctrls.wrQLenPdf::12                      0                       # What write queue length does an incoming req see
system.mem_ctrls.wrQLenPdf::13                      0                       # What write queue length does an incoming req see
system.mem_ctrls.wrQLenPdf::14                      0                       # What write queue length does an incoming req see
system.mem_ctrls.wrQLenPdf::15                      0                       # What write queue length does an incoming req see
system.mem_ctrls.wrQLenPdf::16                      0                       # What write queue length does an incoming req see
system.mem_ctrls.wrQLenPdf::17                      0                       # What write queue length does an incoming req see
system.mem_ctrls.wrQLenPdf::18                      0                       # What write queue length does an incoming req see
system.mem_ctrls.wrQLenPdf::19                      0                       # What write queue length does an incoming req see
system.mem_ctrls.wrQLenPdf::20                      0                       # What write queue length does an incoming req see
system.mem_ctrls.wrQLenPdf::21                      0                       # What write queue length does an incoming req see
system.mem_ctrls.wrQLenPdf::22                      0                       # What write queue length does an incoming req see
system.mem_ctrls.wrQLenPdf::23                      0                       # What write queue length does an incoming req see
system.mem_ctrls.wrQLenPdf::24                      0                       # What write queue length does an incoming req see
system.mem_ctrls.wrQLenPdf::25                      0                       # What write queue length does an incoming req see
system.mem_ctrls.wrQLenPdf::26                      0                       # What write queue length does an incoming req see
system.mem_ctrls.wrQLenPdf::27                      0                       # What write queue length does an incoming req see
system.mem_ctrls.wrQLenPdf::28                      0                       # What write queue length does an incoming req see
system.mem_ctrls.wrQLenPdf::29                      0                       # What write queue length does an incoming req see
system.mem_ctrls.wrQLenPdf::30                      0                       # What write queue length does an incoming req see
system.mem_ctrls.wrQLenPdf::31                      0                       # What write queue length does an incoming req see
system.mem_ctrls.wrQLenPdf::32                      0                       # What write queue length does an incoming req see
system.mem_ctrls.wrQLenPdf::33                      0                       # What write queue length does an incoming req see
system.mem_ctrls.wrQLenPdf::34                      0                       # What write queue length does an incoming req see
system.mem_ctrls.wrQLenPdf::35                      0                       # What write queue length does an incoming req see
system.mem_ctrls.wrQLenPdf::36                      0                       # What write queue length does an incoming req see
system.mem_ctrls.wrQLenPdf::37                      0                       # What write queue length does an incoming req see
system.mem_ctrls.wrQLenPdf::38                      0                       # What write queue length does an incoming req see
system.mem_ctrls.wrQLenPdf::39                      0                       # What write queue length does an incoming req see
system.mem_ctrls.wrQLenPdf::40                      0                       # What write queue length does an incoming req see
system.mem_ctrls.wrQLenPdf::41                      0                       # What write queue length does an incoming req see
system.mem_ctrls.wrQLenPdf::42                      0                       # What write queue length does an incoming req see
system.mem_ctrls.wrQLenPdf::43                      0                       # What write queue length does an incoming req see
system.mem_ctrls.wrQLenPdf::44                      0                       # What write queue length does an incoming req see
system.mem_ctrls.wrQLenPdf::45                      0                       # What write queue length does an incoming req see
system.mem_ctrls.wrQLenPdf::46                      0                       # What write queue length does an incoming req see
system.mem_ctrls.wrQLenPdf::47                      0                       # What write queue length does an incoming req see
system.mem_ctrls.wrQLenPdf::48                      0                       # What write queue length does an incoming req see
system.mem_ctrls.wrQLenPdf::49                      0                       # What write queue length does an incoming req see
system.mem_ctrls.wrQLenPdf::50                      0                       # What write queue length does an incoming req see
system.mem_ctrls.wrQLenPdf::51                      0                       # What write queue length does an incoming req see
system.mem_ctrls.wrQLenPdf::52                      0                       # What write queue length does an incoming req see
system.mem_ctrls.wrQLenPdf::53                      0                       # What write queue length does an incoming req see
system.mem_ctrls.wrQLenPdf::54                      0                       # What write queue length does an incoming req see
system.mem_ctrls.wrQLenPdf::55                      0                       # What write queue length does an incoming req see
system.mem_ctrls.wrQLenPdf::56                      0                       # What write queue length does an incoming req see
system.mem_ctrls.wrQLenPdf::57                      0                       # What write queue length does an incoming req see
system.mem_ctrls.wrQLenPdf::58                      0                       # What write queue length does an incoming req see
system.mem_ctrls.wrQLenPdf::59                      0                       # What write queue length does an incoming req see
system.mem_ctrls.wrQLenPdf::60                      0                       # What write queue length does an incoming req see
system.mem_ctrls.wrQLenPdf::61                      0                       # What write queue length does an incoming req see
system.mem_ctrls.wrQLenPdf::62                      0                       # What write queue length does an incoming req see
system.mem_ctrls.wrQLenPdf::63                      0                       # What write queue length does an incoming req see
system.mem_ctrls.bytesPerActivate::samples         1986                       # Bytes accessed per row activation
system.mem_ctrls.bytesPerActivate::mean    223.871098                       # Bytes accessed per row activation
system.mem_ctrls.bytesPerActivate::gmean   120.409667                       # Bytes accessed per row activation
system.mem_ctrls.bytesPerActivate::stdev   324.404523                       # Bytes accessed per row activation
system.mem_ctrls.bytesPerActivate::0-127         1092     54.98%     54.98% # Bytes accessed per row activation
system.mem_ctrls.bytesPerActivate::128-255          565     28.45%     83.43% # Bytes accessed per row activation
system.mem_ctrls.bytesPerActivate::256-383           26      1.31%     84.74% # Bytes accessed per row activation
system.mem_ctrls.bytesPerActivate::384-511           12      0.60%     85.35% # Bytes accessed per row activation
system.mem_ctrls.bytesPerActivate::512-639           10      0.50%     85.85% # Bytes accessed per row activation
system.mem_ctrls.bytesPerActivate::640-767            7      0.35%     86.20% # Bytes accessed per row activation
system.mem_ctrls.bytesPerActivate::768-895            6      0.30%     86.51% # Bytes accessed per row activation
system.mem_ctrls.bytesPerActivate::896-1023            5      0.25%     86.76% # Bytes accessed per row activation
system.mem_ctrls.bytesPerActivate::1024-1151          263     13.24%    100.00% # Bytes accessed per row activation
system.mem_ctrls.bytesPerActivate::total         1986                       # Bytes accessed per row activation
system.mem_ctrls.totQLat                     78995422                       # Total ticks spent queuing
system.mem_ctrls.totMemAccLat               209832922                       # Total ticks spent from burst creation until serviced by the DRAM
system.mem_ctrls.totBusLat                   34890000                       # Total ticks spent in databus transfers
system.mem_ctrls.avgQLat                     11320.64                       # Average queueing delay per DRAM burst
system.mem_ctrls.avgBusLat                    5000.00                       # Average bus latency per DRAM burst
system.mem_ctrls.avgMemAccLat                30070.64                       # Average memory access latency per DRAM burst
system.mem_ctrls.avgRdBW                        37.05                       # Average DRAM read bandwidth in MiByte/s
system.mem_ctrls.avgWrBW                         0.00                       # Average achieved write bandwidth in MiByte/s
system.mem_ctrls.avgRdBWSys                     37.05                       # Average system read bandwidth in MiByte/s
system.mem_ctrls.avgWrBWSys                      0.00                       # Average system write bandwidth in MiByte/s
system.mem_ctrls.peakBW                      12800.00                       # Theoretical peak bandwidth in MiByte/s
system.mem_ctrls.busUtil                         0.29                       # Data bus utilization in percentage
system.mem_ctrls.busUtilRead                     0.29                       # Data bus utilization in percentage for reads
system.mem_ctrls.busUtilWrite                    0.00                       # Data bus utilization in percentage for writes
system.mem_ctrls.avgRdQLen                       1.01                       # Average read queue length when enqueuing
system.mem_ctrls.avgWrQLen                       0.00                       # Average write queue length when enqueuing
system.mem_ctrls.readRowHits                     4982                       # Number of row buffer hits during reads
system.mem_ctrls.writeRowHits                       0                       # Number of row buffer hits during writes
system.mem_ctrls.readRowHitRate                 71.40                       # Row buffer hit rate for reads
system.mem_ctrls.writeRowHitRate                  nan                       # Row buffer hit rate for writes
system.mem_ctrls.avgGap                    1727287.12                       # Average gap between requests
system.mem_ctrls.pageHitRate                    71.40                       # Row buffer hit rate, read and write combined
system.mem_ctrls_0.actEnergy                  7877520                       # Energy for activate commands per rank (pJ)
system.mem_ctrls_0.preEnergy                  4298250                       # Energy for precharge commands per rank (pJ)
system.mem_ctrls_0.readEnergy                28727400                       # Energy for read commands per rank (pJ)
system.mem_ctrls_0.writeEnergy                      0                       # Energy for write commands per rank (pJ)
system.mem_ctrls_0.refreshEnergy            786742320                       # Energy for refresh commands per rank (pJ)
system.mem_ctrls_0.actBackEnergy           2842329510                       # Energy for active background per rank (pJ)
system.mem_ctrls_0.preBackEnergy           4734081750                       # Energy for precharge background per rank (pJ)
system.mem_ctrls_0.totalEnergy             8404056750                       # Total energy per rank (pJ)
system.mem_ctrls_0.averagePower            697.687504                       # Core power per rank (mW)
system.mem_ctrls_0.memoryStateTime::IDLE   7859662427                       # Time in different power states
system.mem_ctrls_0.memoryStateTime::REF     402220000                       # Time in different power states
system.mem_ctrls_0.memoryStateTime::PRE_PDN            0                       # Time in different power states
system.mem_ctrls_0.memoryStateTime::ACT    3786295073                       # Time in different power states
system.mem_ctrls_0.memoryStateTime::ACT_PDN            0                       # Time in different power states
system.mem_ctrls_1.actEnergy                  7061040                       # Energy for activate commands per rank (pJ)
system.mem_ctrls_1.preEnergy                  3852750                       # Energy for precharge commands per rank (pJ)
system.mem_ctrls_1.readEnergy                25006800                       # Energy for read commands per rank (pJ)
system.mem_ctrls_1.writeEnergy                      0                       # Energy for write commands per rank (pJ)
system.mem_ctrls_1.refreshEnergy            786742320                       # Energy for refresh commands per rank (pJ)
system.mem_ctrls_1.actBackEnergy           2889210015                       # Energy for active background per rank (pJ)
system.mem_ctrls_1.preBackEnergy           4692950250                       # Energy for precharge background per rank (pJ)
system.mem_ctrls_1.totalEnergy             8404823175                       # Total energy per rank (pJ)
system.mem_ctrls_1.averagePower            697.751928                       # Core power per rank (mW)
system.mem_ctrls_1.memoryStateTime::IDLE   7792069992                       # Time in different power states
system.mem_ctrls_1.memoryStateTime::REF     402220000                       # Time in different power states
system.mem_ctrls_1.memoryStateTime::PRE_PDN            0                       # Time in different power states
system.mem_ctrls_1.memoryStateTime::ACT    3854607008                       # Time in different power states
system.mem_ctrls_1.memoryStateTime::ACT_PDN            0                       # Time in different power states
system.cpu.branchPred.lookups                 2202278                       # Number of BP lookups
system.cpu.branchPred.condPredicted           2200044                       # Number of conditional branches predicted
system.cpu.branchPred.condIncorrect             18034                       # Number of conditional branches incorrect
system.cpu.branchPred.BTBLookups              2196910                       # Number of BTB lookups
system.cpu.branchPred.BTBHits                 2196185                       # Number of BTB hits
system.cpu.branchPred.BTBCorrect                    0                       # Number of correct BTB predictions (this stat may not work properly.
system.cpu.branchPred.BTBHitPct             99.966999                       # BTB Hit Percentage
system.cpu.branchPred.usedRAS                     747                       # Number of times the RAS was used to get a target.
system.cpu.branchPred.RASInCorrect                  7                       # Number of incorrect RAS predictions.
system.cpu_voltage_domain.voltage                   1                       # Voltage in Volts
system.cpu_clk_domain.clock                       500                       # Clock period in ticks
system.cpu.dstage2_mmu.stage2_tlb.walker.walks            0                       # Table walker walks requested
system.cpu.dstage2_mmu.stage2_tlb.walker.walkRequestOrigin_Requested::Data            0                       # Table walker requests started/completed, data/inst
system.cpu.dstage2_mmu.stage2_tlb.walker.walkRequestOrigin_Requested::Inst            0                       # Table walker requests started/completed, data/inst
system.cpu.dstage2_mmu.stage2_tlb.walker.walkRequestOrigin_Requested::total            0                       # Table walker requests started/completed, data/inst
system.cpu.dstage2_mmu.stage2_tlb.walker.walkRequestOrigin_Completed::Data            0                       # Table walker requests started/completed, data/inst
system.cpu.dstage2_mmu.stage2_tlb.walker.walkRequestOrigin_Completed::Inst            0                       # Table walker requests started/completed, data/inst
system.cpu.dstage2_mmu.stage2_tlb.walker.walkRequestOrigin_Completed::total            0                       # Table walker requests started/completed, data/inst
system.cpu.dstage2_mmu.stage2_tlb.walker.walkRequestOrigin::total            0                       # Table walker requests started/completed, data/inst
system.cpu.dstage2_mmu.stage2_tlb.inst_hits            0                       # ITB inst hits
system.cpu.dstage2_mmu.stage2_tlb.inst_misses            0                       # ITB inst misses
system.cpu.dstage2_mmu.stage2_tlb.read_hits            0                       # DTB read hits
system.cpu.dstage2_mmu.stage2_tlb.read_misses            0                       # DTB read misses
system.cpu.dstage2_mmu.stage2_tlb.write_hits            0                       # DTB write hits
system.cpu.dstage2_mmu.stage2_tlb.write_misses            0                       # DTB write misses
system.cpu.dstage2_mmu.stage2_tlb.flush_tlb            0                       # Number of times complete TLB was flushed
system.cpu.dstage2_mmu.stage2_tlb.flush_tlb_mva            0                       # Number of times TLB was flushed by MVA
system.cpu.dstage2_mmu.stage2_tlb.flush_tlb_mva_asid            0                       # Number of times TLB was flushed by MVA & ASID
system.cpu.dstage2_mmu.stage2_tlb.flush_tlb_asid            0                       # Number of times TLB was flushed by ASID
system.cpu.dstage2_mmu.stage2_tlb.flush_entries            0                       # Number of entries that have been flushed from TLB
system.cpu.dstage2_mmu.stage2_tlb.align_faults            0                       # Number of TLB faults due to alignment restrictions
system.cpu.dstage2_mmu.stage2_tlb.prefetch_faults            0                       # Number of TLB faults due to prefetch
system.cpu.dstage2_mmu.stage2_tlb.domain_faults            0                       # Number of TLB faults due to domain restrictions
system.cpu.dstage2_mmu.stage2_tlb.perms_faults            0                       # Number of TLB faults due to permissions restrictions
system.cpu.dstage2_mmu.stage2_tlb.read_accesses            0                       # DTB read accesses
system.cpu.dstage2_mmu.stage2_tlb.write_accesses            0                       # DTB write accesses
system.cpu.dstage2_mmu.stage2_tlb.inst_accesses            0                       # ITB inst accesses
system.cpu.dstage2_mmu.stage2_tlb.hits              0                       # DTB hits
system.cpu.dstage2_mmu.stage2_tlb.misses            0                       # DTB misses
system.cpu.dstage2_mmu.stage2_tlb.accesses            0                       # DTB accesses
system.cpu.dtb.walker.walks                         0                       # Table walker walks requested
system.cpu.dtb.walker.walkRequestOrigin_Requested::Data            0                       # Table walker requests started/completed, data/inst
system.cpu.dtb.walker.walkRequestOrigin_Requested::Inst            0                       # Table walker requests started/completed, data/inst
system.cpu.dtb.walker.walkRequestOrigin_Requested::total            0                       # Table walker requests started/completed, data/inst
system.cpu.dtb.walker.walkRequestOrigin_Completed::Data            0                       # Table walker requests started/completed, data/inst
system.cpu.dtb.walker.walkRequestOrigin_Completed::Inst            0                       # Table walker requests started/completed, data/inst
system.cpu.dtb.walker.walkRequestOrigin_Completed::total            0                       # Table walker requests started/completed, data/inst
system.cpu.dtb.walker.walkRequestOrigin::total            0                       # Table walker requests started/completed, data/inst
system.cpu.dtb.inst_hits                            0                       # ITB inst hits
system.cpu.dtb.inst_misses                          0                       # ITB inst misses
system.cpu.dtb.read_hits                            0                       # DTB read hits
system.cpu.dtb.read_misses                          0                       # DTB read misses
system.cpu.dtb.write_hits                           0                       # DTB write hits
system.cpu.dtb.write_misses                         0                       # DTB write misses
system.cpu.dtb.flush_tlb                            0                       # Number of times complete TLB was flushed
system.cpu.dtb.flush_tlb_mva                        0                       # Number of times TLB was flushed by MVA
system.cpu.dtb.flush_tlb_mva_asid                   0                       # Number of times TLB was flushed by MVA & ASID
system.cpu.dtb.flush_tlb_asid                       0                       # Number of times TLB was flushed by ASID
system.cpu.dtb.flush_entries                        0                       # Number of entries that have been flushed from TLB
system.cpu.dtb.align_faults                         0                       # Number of TLB faults due to alignment restrictions
system.cpu.dtb.prefetch_faults                      0                       # Number of TLB faults due to prefetch
system.cpu.dtb.domain_faults                        0                       # Number of TLB faults due to domain restrictions
system.cpu.dtb.perms_faults                         0                       # Number of TLB faults due to permissions restrictions
system.cpu.dtb.read_accesses                        0                       # DTB read accesses
system.cpu.dtb.write_accesses                       0                       # DTB write accesses
system.cpu.dtb.inst_accesses                        0                       # ITB inst accesses
system.cpu.dtb.hits                                 0                       # DTB hits
system.cpu.dtb.misses                               0                       # DTB misses
system.cpu.dtb.accesses                             0                       # DTB accesses
system.cpu.istage2_mmu.stage2_tlb.walker.walks            0                       # Table walker walks requested
system.cpu.istage2_mmu.stage2_tlb.walker.walkRequestOrigin_Requested::Data            0                       # Table walker requests started/completed, data/inst
system.cpu.istage2_mmu.stage2_tlb.walker.walkRequestOrigin_Requested::Inst            0                       # Table walker requests started/completed, data/inst
system.cpu.istage2_mmu.stage2_tlb.walker.walkRequestOrigin_Requested::total            0                       # Table walker requests started/completed, data/inst
system.cpu.istage2_mmu.stage2_tlb.walker.walkRequestOrigin_Completed::Data            0                       # Table walker requests started/completed, data/inst
system.cpu.istage2_mmu.stage2_tlb.walker.walkRequestOrigin_Completed::Inst            0                       # Table walker requests started/completed, data/inst
system.cpu.istage2_mmu.stage2_tlb.walker.walkRequestOrigin_Completed::total            0                       # Table walker requests started/completed, data/inst
system.cpu.istage2_mmu.stage2_tlb.walker.walkRequestOrigin::total            0                       # Table walker requests started/completed, data/inst
system.cpu.istage2_mmu.stage2_tlb.inst_hits            0                       # ITB inst hits
system.cpu.istage2_mmu.stage2_tlb.inst_misses            0                       # ITB inst misses
system.cpu.istage2_mmu.stage2_tlb.read_hits            0                       # DTB read hits
system.cpu.istage2_mmu.stage2_tlb.read_misses            0                       # DTB read misses
system.cpu.istage2_mmu.stage2_tlb.write_hits            0                       # DTB write hits
system.cpu.istage2_mmu.stage2_tlb.write_misses            0                       # DTB write misses
system.cpu.istage2_mmu.stage2_tlb.flush_tlb            0                       # Number of times complete TLB was flushed
system.cpu.istage2_mmu.stage2_tlb.flush_tlb_mva            0                       # Number of times TLB was flushed by MVA
system.cpu.istage2_mmu.stage2_tlb.flush_tlb_mva_asid            0                       # Number of times TLB was flushed by MVA & ASID
system.cpu.istage2_mmu.stage2_tlb.flush_tlb_asid            0                       # Number of times TLB was flushed by ASID
system.cpu.istage2_mmu.stage2_tlb.flush_entries            0                       # Number of entries that have been flushed from TLB
system.cpu.istage2_mmu.stage2_tlb.align_faults            0                       # Number of TLB faults due to alignment restrictions
system.cpu.istage2_mmu.stage2_tlb.prefetch_faults            0                       # Number of TLB faults due to prefetch
system.cpu.istage2_mmu.stage2_tlb.domain_faults            0                       # Number of TLB faults due to domain restrictions
system.cpu.istage2_mmu.stage2_tlb.perms_faults            0                       # Number of TLB faults due to permissions restrictions
system.cpu.istage2_mmu.stage2_tlb.read_accesses            0                       # DTB read accesses
system.cpu.istage2_mmu.stage2_tlb.write_accesses            0                       # DTB write accesses
system.cpu.istage2_mmu.stage2_tlb.inst_accesses            0                       # ITB inst accesses
system.cpu.istage2_mmu.stage2_tlb.hits              0                       # DTB hits
system.cpu.istage2_mmu.stage2_tlb.misses            0                       # DTB misses
system.cpu.istage2_mmu.stage2_tlb.accesses            0                       # DTB accesses
system.cpu.itb.walker.walks                         0                       # Table walker walks requested
system.cpu.itb.walker.walkRequestOrigin_Requested::Data            0                       # Table walker requests started/completed, data/inst
system.cpu.itb.walker.walkRequestOrigin_Requested::Inst            0                       # Table walker requests started/completed, data/inst
system.cpu.itb.walker.walkRequestOrigin_Requested::total            0                       # Table walker requests started/completed, data/inst
system.cpu.itb.walker.walkRequestOrigin_Completed::Data            0                       # Table walker requests started/completed, data/inst
system.cpu.itb.walker.walkRequestOrigin_Completed::Inst            0                       # Table walker requests started/completed, data/inst
system.cpu.itb.walker.walkRequestOrigin_Completed::total            0                       # Table walker requests started/completed, data/inst
system.cpu.itb.walker.walkRequestOrigin::total            0                       # Table walker requests started/completed, data/inst
system.cpu.itb.inst_hits                            0                       # ITB inst hits
system.cpu.itb.inst_misses                          0                       # ITB inst misses
system.cpu.itb.read_hits                            0                       # DTB read hits
system.cpu.itb.read_misses                          0                       # DTB read misses
system.cpu.itb.write_hits                           0                       # DTB write hits
system.cpu.itb.write_misses                         0                       # DTB write misses
system.cpu.itb.flush_tlb                            0                       # Number of times complete TLB was flushed
system.cpu.itb.flush_tlb_mva                        0                       # Number of times TLB was flushed by MVA
system.cpu.itb.flush_tlb_mva_asid                   0                       # Number of times TLB was flushed by MVA & ASID
system.cpu.itb.flush_tlb_asid                       0                       # Number of times TLB was flushed by ASID
system.cpu.itb.flush_entries                        0                       # Number of entries that have been flushed from TLB
system.cpu.itb.align_faults                         0                       # Number of TLB faults due to alignment restrictions
system.cpu.itb.prefetch_faults                      0                       # Number of TLB faults due to prefetch
system.cpu.itb.domain_faults                        0                       # Number of TLB faults due to domain restrictions
system.cpu.itb.perms_faults                         0                       # Number of TLB faults due to permissions restrictions
system.cpu.itb.read_accesses                        0                       # DTB read accesses
system.cpu.itb.write_accesses                       0                       # DTB write accesses
system.cpu.itb.inst_accesses                        0                       # ITB inst accesses
system.cpu.itb.hits                                 0                       # DTB hits
system.cpu.itb.misses                               0                       # DTB misses
system.cpu.itb.accesses                             0                       # DTB accesses
system.cpu.workload.num_syscalls                   18                       # Number of system calls
system.cpu.numCycles                         24106098                       # number of cpu cycles simulated
system.cpu.numWorkItemsStarted                      0                       # number of work items this cpu started
system.cpu.numWorkItemsCompleted                    0                       # number of work items this cpu completed
system.cpu.fetch.icacheStallCycles              31138                       # Number of cycles fetch is stalled on an Icache miss
system.cpu.fetch.Insts                       32805483                       # Number of instructions fetch has processed
system.cpu.fetch.Branches                     2202278                       # Number of branches that fetch encountered
system.cpu.fetch.predictedBranches            2196932                       # Number of branches that fetch has predicted taken
system.cpu.fetch.Cycles                      24013704                       # Number of cycles fetch has run and was not squashing or blocked
system.cpu.fetch.SquashCycles                   36133                       # Number of cycles fetch has spent squashing
system.cpu.fetch.MiscStallCycles                  348                       # Number of cycles fetch has spent waiting on interrupts, or bad addresses, or out of MSHRs
system.cpu.fetch.PendingTrapStallCycles           109                       # Number of stall cycles due to pending traps
system.cpu.fetch.IcacheWaitRetryStallCycles          651                       # Number of stall cycles due to full MSHR
system.cpu.fetch.CacheLines                   8778127                       # Number of cache lines fetched
system.cpu.fetch.IcacheSquashes                   361                       # Number of outstanding Icache misses that were squashed
system.cpu.fetch.rateDist::samples           24064016                       # Number of instructions fetched each cycle (Total)
system.cpu.fetch.rateDist::mean              1.364234                       # Number of instructions fetched each cycle (Total)
system.cpu.fetch.rateDist::stdev             1.262219                       # Number of instructions fetched each cycle (Total)
system.cpu.fetch.rateDist::underflows               0      0.00%      0.00% # Number of instructions fetched each cycle (Total)
system.cpu.fetch.rateDist::0                  8251201     34.29%     34.29% # Number of instructions fetched each cycle (Total)
system.cpu.fetch.rateDist::1                  6928603     28.79%     63.08% # Number of instructions fetched each cycle (Total)
system.cpu.fetch.rateDist::2                   752289      3.13%     66.21% # Number of instructions fetched each cycle (Total)
system.cpu.fetch.rateDist::3                  8131923     33.79%    100.00% # Number of instructions fetched each cycle (Total)
system.cpu.fetch.rateDist::overflows                0      0.00%    100.00% # Number of instructions fetched each cycle (Total)
system.cpu.fetch.rateDist::min_value                0                       # Number of instructions fetched each cycle (Total)
system.cpu.fetch.rateDist::max_value                3                       # Number of instructions fetched each cycle (Total)
system.cpu.fetch.rateDist::total             24064016                       # Number of instructions fetched each cycle (Total)
system.cpu.fetch.branchRate                  0.091358                       # Number of branch fetches per cycle
system.cpu.fetch.rate                        1.360879                       # Number of inst fetches per cycle
system.cpu.decode.IdleCycles                  2121948                       # Number of cycles decode is idle
system.cpu.decode.BlockedCycles              10942376                       # Number of cycles decode is blocked
system.cpu.decode.RunCycles                   7388863                       # Number of cycles decode is running
system.cpu.decode.UnblockCycles               3593075                       # Number of cycles decode is unblocking
system.cpu.decode.SquashCycles                  17754                       # Number of cycles decode is squashing
system.cpu.decode.BranchResolved                  911                       # Number of times decode resolved a branch
system.cpu.decode.BranchMispred                   330                       # Number of times decode detected a branch misprediction
system.cpu.decode.DecodedInsts               32322563                       # Number of instructions handled by decode
system.cpu.decode.SquashedInsts                 97704                       # Number of squashed instructions handled by decode
system.cpu.rename.SquashCycles                  17754                       # Number of cycles rename is squashing
system.cpu.rename.IdleCycles                  4269513                       # Number of cycles rename is idle
system.cpu.rename.BlockCycles                 6094298                       # Number of cycles rename is blocking
system.cpu.rename.serializeStallCycles           6059                       # count of cycles rename stalled for serializing inst
system.cpu.rename.RunCycles                   8303506                       # Number of cycles rename is running
system.cpu.rename.UnblockCycles               5372886                       # Number of cycles rename is unblocking
system.cpu.rename.RenamedInsts               32222580                       # Number of instructions processed by rename
system.cpu.rename.SquashedInsts                 48478                       # Number of squashed instructions processed by rename
system.cpu.rename.ROBFullEvents               4263536                       # Number of times rename has blocked due to ROB full
system.cpu.rename.IQFullEvents                    145                       # Number of times rename has blocked due to IQ full
system.cpu.rename.LQFullEvents                     12                       # Number of times rename has blocked due to LQ full
system.cpu.rename.SQFullEvents                  14165                       # Number of times rename has blocked due to SQ full
system.cpu.rename.RenamedOperands            42706777                       # Number of destination operands rename has renamed
system.cpu.rename.RenameLookups             158936858                       # Number of register rename lookups that rename has made
system.cpu.rename.int_rename_lookups         53620045                       # Number of integer rename lookups
system.cpu.rename.fp_rename_lookups                22                       # Number of floating rename lookups
system.cpu.rename.CommittedMaps              42443135                       # Number of HB maps that are committed
system.cpu.rename.UndoneMaps                   263642                       # Number of HB maps that are undone due to squashing
system.cpu.rename.serializingInsts                 97                       # count of serializing insts renamed
system.cpu.rename.tempSerializingInsts             95                       # count of temporary serializing insts renamed
system.cpu.rename.skidInsts                   9021494                       # count of insts added to the skid buffer
system.cpu.memDep0.insertedLoads              8523508                       # Number of loads inserted to the mem dependence unit.
system.cpu.memDep0.insertedStores              119651                       # Number of stores inserted to the mem dependence unit.
system.cpu.memDep0.conflictingLoads               358                       # Number of conflicting loads.
system.cpu.memDep0.conflictingStores              109                       # Number of conflicting stores.
system.cpu.iq.iqInstsAdded                   32171808                       # Number of instructions added to the IQ (excludes non-spec)
system.cpu.iq.iqNonSpecInstsAdded                 225                       # Number of non-speculative instructions added to the IQ
system.cpu.iq.iqInstsIssued                  32123285                       # Number of instructions issued
system.cpu.iq.iqSquashedInstsIssued             15820                       # Number of squashed instructions issued
system.cpu.iq.iqSquashedInstsExamined          150558                       # Number of squashed instructions iterated over during squash; mainly for profiling
system.cpu.iq.iqSquashedOperandsExamined       504204                       # Number of squashed operands that are examined and possibly removed from graph
system.cpu.iq.iqSquashedNonSpecRemoved             47                       # Number of squashed non-spec instructions that were removed
system.cpu.iq.issued_per_cycle::samples      24064016                       # Number of insts issued each cycle
system.cpu.iq.issued_per_cycle::mean         1.334910                       # Number of insts issued each cycle
system.cpu.iq.issued_per_cycle::stdev        1.092543                       # Number of insts issued each cycle
system.cpu.iq.issued_per_cycle::underflows            0      0.00%      0.00% # Number of insts issued each cycle
system.cpu.iq.issued_per_cycle::0             5771901     23.99%     23.99% # Number of insts issued each cycle
system.cpu.iq.issued_per_cycle::1             9285297     38.59%     62.57% # Number of insts issued each cycle
system.cpu.iq.issued_per_cycle::2             5268138     21.89%     84.46% # Number of insts issued each cycle
system.cpu.iq.issued_per_cycle::3             2653011     11.02%     95.49% # Number of insts issued each cycle
system.cpu.iq.issued_per_cycle::4             1085666      4.51%    100.00% # Number of insts issued each cycle
system.cpu.iq.issued_per_cycle::5                   3      0.00%    100.00% # Number of insts issued each cycle
system.cpu.iq.issued_per_cycle::6                   0      0.00%    100.00% # Number of insts issued each cycle
system.cpu.iq.issued_per_cycle::7                   0      0.00%    100.00% # Number of insts issued each cycle
system.cpu.iq.issued_per_cycle::8                   0      0.00%    100.00% # Number of insts issued each cycle
system.cpu.iq.issued_per_cycle::overflows            0      0.00%    100.00% # Number of insts issued each cycle
system.cpu.iq.issued_per_cycle::min_value            0                       # Number of insts issued each cycle
system.cpu.iq.issued_per_cycle::max_value            5                       # Number of insts issued each cycle
system.cpu.iq.issued_per_cycle::total        24064016                       # Number of insts issued each cycle
system.cpu.iq.fu_full::No_OpClass                   0      0.00%      0.00% # attempts to use FU when none available
system.cpu.iq.fu_full::IntAlu                 1007139     19.51%     19.51% # attempts to use FU when none available
system.cpu.iq.fu_full::IntMult                 977712     18.94%     38.46% # attempts to use FU when none available
system.cpu.iq.fu_full::IntDiv                       0      0.00%     38.46% # attempts to use FU when none available
system.cpu.iq.fu_full::FloatAdd                     0      0.00%     38.46% # attempts to use FU when none available
system.cpu.iq.fu_full::FloatCmp                     0      0.00%     38.46% # attempts to use FU when none available
system.cpu.iq.fu_full::FloatCvt                     0      0.00%     38.46% # attempts to use FU when none available
system.cpu.iq.fu_full::FloatMult                    0      0.00%     38.46% # attempts to use FU when none available
system.cpu.iq.fu_full::FloatDiv                     0      0.00%     38.46% # attempts to use FU when none available
system.cpu.iq.fu_full::FloatSqrt                    0      0.00%     38.46% # attempts to use FU when none available
system.cpu.iq.fu_full::SimdAdd                      0      0.00%     38.46% # attempts to use FU when none available
system.cpu.iq.fu_full::SimdAddAcc                   0      0.00%     38.46% # attempts to use FU when none available
system.cpu.iq.fu_full::SimdAlu                      0      0.00%     38.46% # attempts to use FU when none available
system.cpu.iq.fu_full::SimdCmp                      0      0.00%     38.46% # attempts to use FU when none available
system.cpu.iq.fu_full::SimdCvt                      0      0.00%     38.46% # attempts to use FU when none available
system.cpu.iq.fu_full::SimdMisc                     0      0.00%     38.46% # attempts to use FU when none available
system.cpu.iq.fu_full::SimdMult                     0      0.00%     38.46% # attempts to use FU when none available
system.cpu.iq.fu_full::SimdMultAcc                  0      0.00%     38.46% # attempts to use FU when none available
system.cpu.iq.fu_full::SimdShift                    0      0.00%     38.46% # attempts to use FU when none available
system.cpu.iq.fu_full::SimdShiftAcc                 0      0.00%     38.46% # attempts to use FU when none available
system.cpu.iq.fu_full::SimdSqrt                     0      0.00%     38.46% # attempts to use FU when none available
system.cpu.iq.fu_full::SimdFloatAdd                 0      0.00%     38.46% # attempts to use FU when none available
system.cpu.iq.fu_full::SimdFloatAlu                 0      0.00%     38.46% # attempts to use FU when none available
system.cpu.iq.fu_full::SimdFloatCmp                 0      0.00%     38.46% # attempts to use FU when none available
system.cpu.iq.fu_full::SimdFloatCvt                 0      0.00%     38.46% # attempts to use FU when none available
system.cpu.iq.fu_full::SimdFloatDiv                 0      0.00%     38.46% # attempts to use FU when none available
system.cpu.iq.fu_full::SimdFloatMisc                0      0.00%     38.46% # attempts to use FU when none available
system.cpu.iq.fu_full::SimdFloatMult                0      0.00%     38.46% # attempts to use FU when none available
system.cpu.iq.fu_full::SimdFloatMultAcc             0      0.00%     38.46% # attempts to use FU when none available
system.cpu.iq.fu_full::SimdFloatSqrt                0      0.00%     38.46% # attempts to use FU when none available
system.cpu.iq.fu_full::MemRead                3145398     60.95%     99.40% # attempts to use FU when none available
system.cpu.iq.fu_full::MemWrite                 30769      0.60%    100.00% # attempts to use FU when none available
system.cpu.iq.fu_full::IprAccess                    0      0.00%    100.00% # attempts to use FU when none available
system.cpu.iq.fu_full::InstPrefetch                 0      0.00%    100.00% # attempts to use FU when none available
system.cpu.iq.FU_type_0::No_OpClass                 0      0.00%      0.00% # Type of FU issued
system.cpu.iq.FU_type_0::IntAlu              17172040     53.46%     53.46% # Type of FU issued
system.cpu.iq.FU_type_0::IntMult              6324506     19.69%     73.14% # Type of FU issued
system.cpu.iq.FU_type_0::IntDiv                     0      0.00%     73.14% # Type of FU issued
system.cpu.iq.FU_type_0::FloatAdd                   0      0.00%     73.14% # Type of FU issued
system.cpu.iq.FU_type_0::FloatCmp                   0      0.00%     73.14% # Type of FU issued
system.cpu.iq.FU_type_0::FloatCvt                   0      0.00%     73.14% # Type of FU issued
system.cpu.iq.FU_type_0::FloatMult                  0      0.00%     73.14% # Type of FU issued
system.cpu.iq.FU_type_0::FloatDiv                   0      0.00%     73.14% # Type of FU issued
system.cpu.iq.FU_type_0::FloatSqrt                  0      0.00%     73.14% # Type of FU issued
system.cpu.iq.FU_type_0::SimdAdd                    0      0.00%     73.14% # Type of FU issued
system.cpu.iq.FU_type_0::SimdAddAcc                 0      0.00%     73.14% # Type of FU issued
system.cpu.iq.FU_type_0::SimdAlu                    0      0.00%     73.14% # Type of FU issued
system.cpu.iq.FU_type_0::SimdCmp                    0      0.00%     73.14% # Type of FU issued
system.cpu.iq.FU_type_0::SimdCvt                    0      0.00%     73.14% # Type of FU issued
system.cpu.iq.FU_type_0::SimdMisc                   0      0.00%     73.14% # Type of FU issued
system.cpu.iq.FU_type_0::SimdMult                   0      0.00%     73.14% # Type of FU issued
system.cpu.iq.FU_type_0::SimdMultAcc                0      0.00%     73.14% # Type of FU issued
system.cpu.iq.FU_type_0::SimdShift                  0      0.00%     73.14% # Type of FU issued
system.cpu.iq.FU_type_0::SimdShiftAcc               0      0.00%     73.14% # Type of FU issued
system.cpu.iq.FU_type_0::SimdSqrt                   0      0.00%     73.14% # Type of FU issued
system.cpu.iq.FU_type_0::SimdFloatAdd               0      0.00%     73.14% # Type of FU issued
system.cpu.iq.FU_type_0::SimdFloatAlu               0      0.00%     73.14% # Type of FU issued
system.cpu.iq.FU_type_0::SimdFloatCmp               0      0.00%     73.14% # Type of FU issued
system.cpu.iq.FU_type_0::SimdFloatCvt               0      0.00%     73.14% # Type of FU issued
system.cpu.iq.FU_type_0::SimdFloatDiv               0      0.00%     73.14% # Type of FU issued
system.cpu.iq.FU_type_0::SimdFloatMisc              3      0.00%     73.14% # Type of FU issued
system.cpu.iq.FU_type_0::SimdFloatMult              0      0.00%     73.14% # Type of FU issued
system.cpu.iq.FU_type_0::SimdFloatMultAcc            0      0.00%     73.14% # Type of FU issued
system.cpu.iq.FU_type_0::SimdFloatSqrt              0      0.00%     73.14% # Type of FU issued
system.cpu.iq.FU_type_0::MemRead              8507546     26.48%     99.63% # Type of FU issued
system.cpu.iq.FU_type_0::MemWrite              119190      0.37%    100.00% # Type of FU issued
system.cpu.iq.FU_type_0::IprAccess                  0      0.00%    100.00% # Type of FU issued
system.cpu.iq.FU_type_0::InstPrefetch               0      0.00%    100.00% # Type of FU issued
system.cpu.iq.FU_type_0::total               32123285                       # Type of FU issued
system.cpu.iq.rate                           1.332579                       # Inst issue rate
system.cpu.iq.fu_busy_cnt                     5161018                       # FU busy when requested
system.cpu.iq.fu_busy_rate                   0.160663                       # FU busy rate (busy events/executed inst)
system.cpu.iq.int_inst_queue_reads           93487345                       # Number of integer instruction queue reads
system.cpu.iq.int_inst_queue_writes          32322583                       # Number of integer instruction queue writes
system.cpu.iq.int_inst_queue_wakeup_accesses     32056298                       # Number of integer instruction queue wakeup accesses
system.cpu.iq.fp_inst_queue_reads                  79                       # Number of floating instruction queue reads
system.cpu.iq.fp_inst_queue_writes                 28                       # Number of floating instruction queue writes
system.cpu.iq.fp_inst_queue_wakeup_accesses           28                       # Number of floating instruction queue wakeup accesses
system.cpu.iq.int_alu_accesses               37284252                       # Number of integer alu accesses
system.cpu.iq.fp_alu_accesses                      51                       # Number of floating point alu accesses
system.cpu.iew.lsq.thread0.forwLoads              168                       # Number of loads that had data forwarded from stores
system.cpu.iew.lsq.thread0.invAddrLoads             0                       # Number of loads ignored due to an invalid address
system.cpu.iew.lsq.thread0.squashedLoads        65653                       # Number of loads squashed
system.cpu.iew.lsq.thread0.ignoredResponses            0                       # Number of memory responses ignored because the instruction is squashed
system.cpu.iew.lsq.thread0.memOrderViolation           21                       # Number of memory ordering violations
system.cpu.iew.lsq.thread0.squashedStores          868                       # Number of stores squashed
system.cpu.iew.lsq.thread0.invAddrSwpfs             0                       # Number of software prefetches ignored due to an invalid address
system.cpu.iew.lsq.thread0.blockedLoads             0                       # Number of blocked loads due to partial load-store forwarding
system.cpu.iew.lsq.thread0.rescheduledLoads           10                       # Number of loads that were rescheduled
system.cpu.iew.lsq.thread0.cacheBlocked           220                       # Number of times an access to memory failed due to the cache being blocked
system.cpu.iew.iewIdleCycles                        0                       # Number of cycles IEW is idle
system.cpu.iew.iewSquashCycles                  17754                       # Number of cycles IEW is squashing
system.cpu.iew.iewBlockCycles                    1392                       # Number of cycles IEW is blocking
system.cpu.iew.iewUnblockCycles                   146                       # Number of cycles IEW is unblocking
system.cpu.iew.iewDispatchedInsts            32172048                       # Number of instructions dispatched to IQ
system.cpu.iew.iewDispSquashedInsts                 0                       # Number of squashed instructions skipped by dispatch
system.cpu.iew.iewDispLoadInsts               8523508                       # Number of dispatched load instructions
system.cpu.iew.iewDispStoreInsts               119651                       # Number of dispatched store instructions
system.cpu.iew.iewDispNonSpecInsts                 94                       # Number of dispatched non-speculative instructions
system.cpu.iew.iewIQFullEvents                      3                       # Number of times the IQ has become full, causing a stall
system.cpu.iew.iewLSQFullEvents                    13                       # Number of times the LSQ has become full, causing a stall
system.cpu.iew.memOrderViolationEvents             21                       # Number of memory order violations
system.cpu.iew.predictedTakenIncorrect          16803                       # Number of branches that were predicted taken incorrectly
system.cpu.iew.predictedNotTakenIncorrect          973                       # Number of branches that were predicted not taken incorrectly
system.cpu.iew.branchMispredicts                17776                       # Number of branch mispredicts detected at execute
system.cpu.iew.iewExecutedInsts              32073237                       # Number of executed instructions
system.cpu.iew.iewExecLoadInsts               8475456                       # Number of load instructions executed
system.cpu.iew.iewExecSquashedInsts             50048                       # Number of squashed instructions skipped in execute
system.cpu.iew.exec_swp                             0                       # number of swp insts executed
system.cpu.iew.exec_nop                            15                       # number of nop insts executed
system.cpu.iew.exec_refs                      8594485                       # number of memory reference insts executed
system.cpu.iew.exec_branches                  2150608                       # Number of branches executed
system.cpu.iew.exec_stores                     119029                       # Number of stores executed
system.cpu.iew.exec_rate                     1.330503                       # Inst execution rate
system.cpu.iew.wb_sent                       32056428                       # cumulative count of insts sent to commit
system.cpu.iew.wb_count                      32056326                       # cumulative count of insts written-back
system.cpu.iew.wb_producers                  21399079                       # num instructions producing a value
system.cpu.iew.wb_consumers                  28487686                       # num instructions consuming a value
system.cpu.iew.wb_penalized                         0                       # number of instrctions required to write to 'other' IQ
system.cpu.iew.wb_rate                       1.329802                       # insts written-back per cycle
system.cpu.iew.wb_fanout                     0.751169                       # average fanout of values written-back
system.cpu.iew.wb_penalized_rate                    0                       # fraction of instructions written-back that wrote to 'other' IQ
system.cpu.commit.commitSquashedInsts          102935                       # The number of squashed insts skipped by commit
system.cpu.commit.commitNonSpecStalls             178                       # The number of times commit has been forced to stall to communicate backwards
system.cpu.commit.branchMispredicts             17722                       # The number of times a branch was mispredicted
system.cpu.commit.committed_per_cycle::samples     24045654                       # Number of insts commited each cycle
system.cpu.commit.committed_per_cycle::mean     1.331695                       # Number of insts commited each cycle
system.cpu.commit.committed_per_cycle::stdev     2.053039                       # Number of insts commited each cycle
system.cpu.commit.committed_per_cycle::underflows            0      0.00%      0.00% # Number of insts commited each cycle
system.cpu.commit.committed_per_cycle::0     12223785     50.84%     50.84% # Number of insts commited each cycle
system.cpu.commit.committed_per_cycle::1      5346023     22.23%     73.07% # Number of insts commited each cycle
system.cpu.commit.committed_per_cycle::2      2214368      9.21%     82.28% # Number of insts commited each cycle
system.cpu.commit.committed_per_cycle::3      1100825      4.58%     86.86% # Number of insts commited each cycle
system.cpu.commit.committed_per_cycle::4        46105      0.19%     87.05% # Number of insts commited each cycle
system.cpu.commit.committed_per_cycle::5      2011588      8.37%     95.41% # Number of insts commited each cycle
system.cpu.commit.committed_per_cycle::6        46901      0.20%     95.61% # Number of insts commited each cycle
system.cpu.commit.committed_per_cycle::7        27997      0.12%     95.72% # Number of insts commited each cycle
system.cpu.commit.committed_per_cycle::8      1028062      4.28%    100.00% # Number of insts commited each cycle
system.cpu.commit.committed_per_cycle::overflows            0      0.00%    100.00% # Number of insts commited each cycle
system.cpu.commit.committed_per_cycle::min_value            0                       # Number of insts commited each cycle
system.cpu.commit.committed_per_cycle::max_value            8                       # Number of insts commited each cycle
system.cpu.commit.committed_per_cycle::total     24045654                       # Number of insts commited each cycle
system.cpu.commit.committedInsts             32001371                       # Number of instructions committed
system.cpu.commit.committedOps               32021475                       # Number of ops (including micro ops) committed
system.cpu.commit.swp_count                         0                       # Number of s/w prefetches committed
system.cpu.commit.refs                        8576638                       # Number of memory references committed
system.cpu.commit.loads                       8457855                       # Number of loads committed
system.cpu.commit.membars                         107                       # Number of memory barriers committed
system.cpu.commit.branches                    2150040                       # Number of branches committed
system.cpu.commit.fp_insts                         28                       # Number of committed floating point instructions.
system.cpu.commit.int_insts                  29871939                       # Number of committed integer instructions.
system.cpu.commit.function_calls                  287                       # Number of function calls committed.
system.cpu.commit.op_class_0::No_OpClass            0      0.00%      0.00% # Class of committed instruction
system.cpu.commit.op_class_0::IntAlu         17120586     53.47%     53.47% # Class of committed instruction
system.cpu.commit.op_class_0::IntMult         6324248     19.75%     73.22% # Class of committed instruction
system.cpu.commit.op_class_0::IntDiv                0      0.00%     73.22% # Class of committed instruction
system.cpu.commit.op_class_0::FloatAdd              0      0.00%     73.22% # Class of committed instruction
system.cpu.commit.op_class_0::FloatCmp              0      0.00%     73.22% # Class of committed instruction
system.cpu.commit.op_class_0::FloatCvt              0      0.00%     73.22% # Class of committed instruction
system.cpu.commit.op_class_0::FloatMult             0      0.00%     73.22% # Class of committed instruction
system.cpu.commit.op_class_0::FloatDiv              0      0.00%     73.22% # Class of committed instruction
system.cpu.commit.op_class_0::FloatSqrt             0      0.00%     73.22% # Class of committed instruction
system.cpu.commit.op_class_0::SimdAdd               0      0.00%     73.22% # Class of committed instruction
system.cpu.commit.op_class_0::SimdAddAcc            0      0.00%     73.22% # Class of committed instruction
system.cpu.commit.op_class_0::SimdAlu               0      0.00%     73.22% # Class of committed instruction
system.cpu.commit.op_class_0::SimdCmp               0      0.00%     73.22% # Class of committed instruction
system.cpu.commit.op_class_0::SimdCvt               0      0.00%     73.22% # Class of committed instruction
system.cpu.commit.op_class_0::SimdMisc              0      0.00%     73.22% # Class of committed instruction
system.cpu.commit.op_class_0::SimdMult              0      0.00%     73.22% # Class of committed instruction
system.cpu.commit.op_class_0::SimdMultAcc            0      0.00%     73.22% # Class of committed instruction
system.cpu.commit.op_class_0::SimdShift             0      0.00%     73.22% # Class of committed instruction
system.cpu.commit.op_class_0::SimdShiftAcc            0      0.00%     73.22% # Class of committed instruction
system.cpu.commit.op_class_0::SimdSqrt              0      0.00%     73.22% # Class of committed instruction
system.cpu.commit.op_class_0::SimdFloatAdd            0      0.00%     73.22% # Class of committed instruction
system.cpu.commit.op_class_0::SimdFloatAlu            0      0.00%     73.22% # Class of committed instruction
system.cpu.commit.op_class_0::SimdFloatCmp            0      0.00%     73.22% # Class of committed instruction
system.cpu.commit.op_class_0::SimdFloatCvt            0      0.00%     73.22% # Class of committed instruction
system.cpu.commit.op_class_0::SimdFloatDiv            0      0.00%     73.22% # Class of committed instruction
system.cpu.commit.op_class_0::SimdFloatMisc            3      0.00%     73.22% # Class of committed instruction
system.cpu.commit.op_class_0::SimdFloatMult            0      0.00%     73.22% # Class of committed instruction
system.cpu.commit.op_class_0::SimdFloatMultAcc            0      0.00%     73.22% # Class of committed instruction
system.cpu.commit.op_class_0::SimdFloatSqrt            0      0.00%     73.22% # Class of committed instruction
system.cpu.commit.op_class_0::MemRead         8457855     26.41%     99.63% # Class of committed instruction
system.cpu.commit.op_class_0::MemWrite         118783      0.37%    100.00% # Class of committed instruction
system.cpu.commit.op_class_0::IprAccess             0      0.00%    100.00% # Class of committed instruction
system.cpu.commit.op_class_0::InstPrefetch            0      0.00%    100.00% # Class of committed instruction
system.cpu.commit.op_class_0::total          32021475                       # Class of committed instruction
system.cpu.commit.bw_lim_events               1028062                       # number cycles where commit BW limit reached
system.cpu.rob.rob_reads                     55141780                       # The number of ROB reads
system.cpu.rob.rob_writes                    64267185                       # The number of ROB writes
system.cpu.timesIdled                             446                       # Number of times that the entire CPU went into an idle state and unscheduled itself
system.cpu.idleCycles                           42082                       # Total number of cycles that the CPU has spent unscheduled due to idling
system.cpu.committedInsts                    32001371                       # Number of Instructions Simulated
system.cpu.committedOps                      32021475                       # Number of Ops (including micro ops) Simulated
system.cpu.cpi                               0.753283                       # CPI: Cycles Per Instruction
system.cpu.cpi_total                         0.753283                       # CPI: Total CPI of All Threads
system.cpu.ipc                               1.327522                       # IPC: Instructions Per Cycle
system.cpu.ipc_total                         1.327522                       # IPC: Total IPC of All Threads
system.cpu.int_regfile_reads                 53356675                       # number of integer regfile reads
system.cpu.int_regfile_writes                29735051                       # number of integer regfile writes
system.cpu.fp_regfile_reads                        22                       # number of floating regfile reads
system.cpu.fp_regfile_writes                        6                       # number of floating regfile writes
system.cpu.cc_regfile_reads                 121595611                       # number of cc regfile reads
system.cpu.cc_regfile_writes                 12743065                       # number of cc regfile writes
system.cpu.misc_regfile_reads                 8579173                       # number of misc regfile reads
system.cpu.misc_regfile_writes                    106                       # number of misc regfile writes
system.cpu.dcache.tags.replacements           2137765                       # number of replacements
system.cpu.dcache.tags.tagsinuse          1020.960930                       # Cycle average of tags in use
system.cpu.dcache.tags.total_refs             4283251                       # Total number of references to valid blocks.
system.cpu.dcache.tags.sampled_refs           2138789                       # Sample count of references to valid blocks.
system.cpu.dcache.tags.avg_refs              2.002652                       # Average number of references to valid blocks.
system.cpu.dcache.tags.warmup_cycle          54346500                       # Cycle when the warmup percentage was hit.
system.cpu.dcache.tags.occ_blocks::cpu.data  1020.960930                       # Average occupied blocks per requestor
system.cpu.dcache.tags.occ_percent::cpu.data     0.997032                       # Average percentage of cache occupancy
[...]
system.l2.overall_misses::cpu.inst                544                       # number of overall misses
system.l2.overall_misses::cpu.data               2304                       # number of overall misses
system.l2.overall_misses::total                  2848                       # number of overall misses
system.l2.ReadReq_miss_latency::cpu.inst     38056500                       # number of ReadReq miss cycles
system.l2.ReadReq_miss_latency::cpu.data      9657500                       # number of ReadReq miss cycles
system.l2.ReadReq_miss_latency::total        47714000                       # number of ReadReq miss cycles
system.l2.ReadExReq_miss_latency::cpu.data    167419031                       # number of ReadExReq miss cycles
system.l2.ReadExReq_miss_latency::total     167419031                       # number of ReadExReq miss cycles
system.l2.demand_miss_latency::cpu.inst      38056500                       # number of demand (read+write) miss cycles
system.l2.demand_miss_latency::cpu.data     177076531                       # number of demand (read+write) miss cycles
system.l2.demand_miss_latency::total        215133031                       # number of demand (read+write) miss cycles
system.l2.overall_miss_latency::cpu.inst     38056500                       # number of overall miss cycles
system.l2.overall_miss_latency::cpu.data    177076531                       # number of overall miss cycles
system.l2.overall_miss_latency::total       215133031                       # number of overall miss cycles
system.l2.ReadReq_accesses::cpu.inst              636                       # number of ReadReq accesses(hits+misses)
system.l2.ReadReq_accesses::cpu.data          2118159                       # number of ReadReq accesses(hits+misses)
system.l2.ReadReq_accesses::total             2118795                       # number of ReadReq accesses(hits+misses)
system.l2.Writeback_accesses::writebacks      2137633                       # number of Writeback accesses(hits+misses)
system.l2.Writeback_accesses::total           2137633                       # number of Writeback accesses(hits+misses)
system.l2.ReadExReq_accesses::cpu.data          20630                       # number of ReadExReq accesses(hits+misses)
system.l2.ReadExReq_accesses::total             20630                       # number of ReadExReq accesses(hits+misses)
system.l2.demand_accesses::cpu.inst               636                       # number of demand (read+write) accesses
system.l2.demand_accesses::cpu.data           2138789                       # number of demand (read+write) accesses
system.l2.demand_accesses::total              2139425                       # number of demand (read+write) accesses
system.l2.overall_accesses::cpu.inst              636                       # number of overall (read+write) accesses
system.l2.overall_accesses::cpu.data          2138789                       # number of overall (read+write) accesses
system.l2.overall_accesses::total             2139425                       # number of overall (read+write) accesses
system.l2.ReadReq_miss_rate::cpu.inst        0.855346                       # miss rate for ReadReq accesses
system.l2.ReadReq_miss_rate::cpu.data        0.000059                       # miss rate for ReadReq accesses
system.l2.ReadReq_miss_rate::total           0.000316                       # miss rate for ReadReq accesses
system.l2.ReadExReq_miss_rate::cpu.data      0.105574                       # miss rate for ReadExReq accesses
system.l2.ReadExReq_miss_rate::total         0.105574                       # miss rate for ReadExReq accesses
system.l2.demand_miss_rate::cpu.inst         0.855346                       # miss rate for demand accesses
system.l2.demand_miss_rate::cpu.data         0.001077                       # miss rate for demand accesses
system.l2.demand_miss_rate::total            0.001331                       # miss rate for demand accesses
system.l2.overall_miss_rate::cpu.inst        0.855346                       # miss rate for overall accesses
system.l2.overall_miss_rate::cpu.data        0.001077                       # miss rate for overall accesses
system.l2.overall_miss_rate::total           0.001331                       # miss rate for overall accesses
system.l2.ReadReq_avg_miss_latency::cpu.inst 69956.801471                       # average ReadReq miss latency
system.l2.ReadReq_avg_miss_latency::cpu.data 76646.825397                       # average ReadReq miss latency
system.l2.ReadReq_avg_miss_latency::total 71214.925373                       # average ReadReq miss latency
system.l2.ReadExReq_avg_miss_latency::cpu.data 76868.241965                       # average ReadExReq miss latency
system.l2.ReadExReq_avg_miss_latency::total 76868.241965                       # average ReadExReq miss latency
system.l2.demand_avg_miss_latency::cpu.inst 69956.801471                       # average overall miss latency
system.l2.demand_avg_miss_latency::cpu.data 76856.133247                       # average overall miss latency
system.l2.demand_avg_miss_latency::total 75538.283357                       # average overall miss latency
system.l2.overall_avg_miss_latency::cpu.inst 69956.801471                       # average overall miss latency
system.l2.overall_avg_miss_latency::cpu.data 76856.133247                       # average overall miss latency
system.l2.overall_avg_miss_latency::total 75538.283357                       # average overall miss latency
system.l2.blocked_cycles::no_mshrs                  0                       # number of cycles access was blocked
system.l2.blocked_cycles::no_targets                0                       # number of cycles access was blocked
system.l2.blocked::no_mshrs                         0                       # number of cycles access was blocked
system.l2.blocked::no_targets                       0                       # number of cycles access was blocked
system.l2.avg_blocked_cycles::no_mshrs            nan                       # average number of cycles each access was blocked
system.l2.avg_blocked_cycles::no_targets          nan                       # average number of cycles each access was blocked
system.l2.fast_writes                               0                       # number of fast writes performed
system.l2.cache_copies                              0                       # number of cache copies performed
system.l2.ReadReq_mshr_hits::cpu.data              14                       # number of ReadReq MSHR hits
system.l2.ReadReq_mshr_hits::total                 14                       # number of ReadReq MSHR hits
system.l2.ReadExReq_mshr_hits::cpu.data            14                       # number of ReadExReq MSHR hits
system.l2.ReadExReq_mshr_hits::total               14                       # number of ReadExReq MSHR hits
system.l2.demand_mshr_hits::cpu.data               28                       # number of demand (read+write) MSHR hits
system.l2.demand_mshr_hits::total                  28                       # number of demand (read+write) MSHR hits
system.l2.overall_mshr_hits::cpu.data              28                       # number of overall MSHR hits
system.l2.overall_mshr_hits::total                 28                       # number of overall MSHR hits
system.l2.ReadReq_mshr_misses::cpu.inst           544                       # number of ReadReq MSHR misses
system.l2.ReadReq_mshr_misses::cpu.data           112                       # number of ReadReq MSHR misses
system.l2.ReadReq_mshr_misses::total              656                       # number of ReadReq MSHR misses
system.l2.HardPFReq_mshr_misses::l2.prefetcher         4171                       # number of HardPFReq MSHR misses
system.l2.HardPFReq_mshr_misses::total           4171                       # number of HardPFReq MSHR misses
system.l2.ReadExReq_mshr_misses::cpu.data         2164                       # number of ReadExReq MSHR misses
system.l2.ReadExReq_mshr_misses::total           2164                       # number of ReadExReq MSHR misses
system.l2.demand_mshr_misses::cpu.inst            544                       # number of demand (read+write) MSHR misses
system.l2.demand_mshr_misses::cpu.data           2276                       # number of demand (read+write) MSHR misses
system.l2.demand_mshr_misses::total              2820                       # number of demand (read+write) MSHR misses
system.l2.overall_mshr_misses::cpu.inst           544                       # number of overall MSHR misses
system.l2.overall_mshr_misses::cpu.data          2276                       # number of overall MSHR misses
system.l2.overall_mshr_misses::l2.prefetcher         4171                       # number of overall MSHR misses
system.l2.overall_mshr_misses::total             6991                       # number of overall MSHR misses
system.l2.ReadReq_mshr_miss_latency::cpu.inst     33430000                       # number of ReadReq MSHR miss cycles
system.l2.ReadReq_mshr_miss_latency::cpu.data      7861500                       # number of ReadReq MSHR miss cycles
system.l2.ReadReq_mshr_miss_latency::total     41291500                       # number of ReadReq MSHR miss cycles
system.l2.HardPFReq_mshr_miss_latency::l2.prefetcher    232219440                       # number of HardPFReq MSHR miss cycles
system.l2.HardPFReq_mshr_miss_latency::total    232219440                       # number of HardPFReq MSHR miss cycles
system.l2.ReadExReq_mshr_miss_latency::cpu.data    147146000                       # number of ReadExReq MSHR miss cycles
system.l2.ReadExReq_mshr_miss_latency::total    147146000                       # number of ReadExReq MSHR miss cycles
system.l2.demand_mshr_miss_latency::cpu.inst     33430000                       # number of demand (read+write) MSHR miss cycles
system.l2.demand_mshr_miss_latency::cpu.data    155007500                       # number of demand (read+write) MSHR miss cycles
system.l2.demand_mshr_miss_latency::total    188437500                       # number of demand (read+write) MSHR miss cycles
system.l2.overall_mshr_miss_latency::cpu.inst     33430000                       # number of overall MSHR miss cycles
system.l2.overall_mshr_miss_latency::cpu.data    155007500                       # number of overall MSHR miss cycles
system.l2.overall_mshr_miss_latency::l2.prefetcher    232219440                       # number of overall MSHR miss cycles
system.l2.overall_mshr_miss_latency::total    420656940                       # number of overall MSHR miss cycles
system.l2.ReadReq_mshr_miss_rate::cpu.inst     0.855346                       # mshr miss rate for ReadReq accesses
system.l2.ReadReq_mshr_miss_rate::cpu.data     0.000053                       # mshr miss rate for ReadReq accesses
system.l2.ReadReq_mshr_miss_rate::total      0.000310                       # mshr miss rate for ReadReq accesses
system.l2.HardPFReq_mshr_miss_rate::l2.prefetcher          inf                       # mshr miss rate for HardPFReq accesses
system.l2.HardPFReq_mshr_miss_rate::total          inf                       # mshr miss rate for HardPFReq accesses
system.l2.ReadExReq_mshr_miss_rate::cpu.data     0.104896                       # mshr miss rate for ReadExReq accesses
system.l2.ReadExReq_mshr_miss_rate::total     0.104896                       # mshr miss rate for ReadExReq accesses
system.l2.demand_mshr_miss_rate::cpu.inst     0.855346                       # mshr miss rate for demand accesses
system.l2.demand_mshr_miss_rate::cpu.data     0.001064                       # mshr miss rate for demand accesses
system.l2.demand_mshr_miss_rate::total       0.001318                       # mshr miss rate for demand accesses
system.l2.overall_mshr_miss_rate::cpu.inst     0.855346                       # mshr miss rate for overall accesses
system.l2.overall_mshr_miss_rate::cpu.data     0.001064                       # mshr miss rate for overall accesses
system.l2.overall_mshr_miss_rate::l2.prefetcher          inf                       # mshr miss rate for overall accesses
system.l2.overall_mshr_miss_rate::total      0.003268                       # mshr miss rate for overall accesses
system.l2.ReadReq_avg_mshr_miss_latency::cpu.inst 61452.205882                       # average ReadReq mshr miss latency
system.l2.ReadReq_avg_mshr_miss_latency::cpu.data 70191.964286                       # average ReadReq mshr miss latency
system.l2.ReadReq_avg_mshr_miss_latency::total 62944.359756                       # average ReadReq mshr miss latency
system.l2.HardPFReq_avg_mshr_miss_latency::l2.prefetcher 55674.763846                       # average HardPFReq mshr miss latency
system.l2.HardPFReq_avg_mshr_miss_latency::total 55674.763846                       # average HardPFReq mshr miss latency
system.l2.ReadExReq_avg_mshr_miss_latency::cpu.data 67997.227357                       # average ReadExReq mshr miss latency
system.l2.ReadExReq_avg_mshr_miss_latency::total 67997.227357                       # average ReadExReq mshr miss latency
system.l2.demand_avg_mshr_miss_latency::cpu.inst 61452.205882                       # average overall mshr miss latency
system.l2.demand_avg_mshr_miss_latency::cpu.data 68105.228471                       # average overall mshr miss latency
system.l2.demand_avg_mshr_miss_latency::total 66821.808511                       # average overall mshr miss latency
system.l2.overall_avg_mshr_miss_latency::cpu.inst 61452.205882                       # average overall mshr miss latency
system.l2.overall_avg_mshr_miss_latency::cpu.data 68105.228471                       # average overall mshr miss latency
system.l2.overall_avg_mshr_miss_latency::l2.prefetcher 55674.763846                       # average overall mshr miss latency
system.l2.overall_avg_mshr_miss_latency::total 60171.211558                       # average overall mshr miss latency
system.l2.no_allocate_misses                        0                       # Number of misses that were no-allocate
system.membus.trans_dist::ReadReq                4814                       # Transaction distribution
system.membus.trans_dist::ReadResp               4813                       # Transaction distribution
system.membus.trans_dist::ReadExReq              2164                       # Transaction distribution
system.membus.trans_dist::ReadExResp             2164                       # Transaction distribution
system.membus.pkt_count_system.l2.mem_side::system.mem_ctrls.port        13955                       # Packet count per connected master and slave (bytes)
system.membus.pkt_count::total                  13955                       # Packet count per connected master and slave (bytes)
system.membus.pkt_size_system.l2.mem_side::system.mem_ctrls.port       446528                       # Cumulative packet size per connected master and slave (bytes)
system.membus.pkt_size::total                  446528                       # Cumulative packet size per connected master and slave (bytes)
system.membus.snoops                                0                       # Total snoops (count)
system.membus.snoop_fanout::samples              6978                       # Request fanout histogram
system.membus.snoop_fanout::mean                    0                       # Request fanout histogram
system.membus.snoop_fanout::stdev                   0                       # Request fanout histogram
system.membus.snoop_fanout::underflows              0      0.00%      0.00% # Request fanout histogram
system.membus.snoop_fanout::0                    6978    100.00%    100.00% # Request fanout histogram
system.membus.snoop_fanout::1                       0      0.00%    100.00% # Request fanout histogram
system.membus.snoop_fanout::overflows               0      0.00%    100.00% # Request fanout histogram
system.membus.snoop_fanout::min_value               0                       # Request fanout histogram
system.membus.snoop_fanout::max_value               0                       # Request fanout histogram
system.membus.snoop_fanout::total                6978                       # Request fanout histogram
system.membus.reqLayer0.occupancy             9888293                       # Layer occupancy (ticks)
system.membus.reqLayer0.utilization               0.1                       # Layer utilization (%)
system.membus.respLayer1.occupancy           36868837                       # Layer occupancy (ticks)
system.membus.respLayer1.utilization              0.3                       # Layer utilization (%)
system.tol2bus.trans_dist::ReadReq            2118795                       # Transaction distribution
system.tol2bus.trans_dist::ReadResp           2118794                       # Transaction distribution
system.tol2bus.trans_dist::Writeback          2137633                       # Transaction distribution
system.tol2bus.trans_dist::HardPFReq             4681                       # Transaction distribution
system.tol2bus.trans_dist::ReadExReq            20630                       # Transaction distribution
system.tol2bus.trans_dist::ReadExResp           20630                       # Transaction distribution
system.tol2bus.pkt_count_system.cpu.icache.mem_side::system.l2.cpu_side         1271                       # Packet count per connected master and slave (bytes)
system.tol2bus.pkt_count_system.cpu.dcache.mem_side::system.l2.cpu_side      6415211                       # Packet count per connected master and slave (bytes)
system.tol2bus.pkt_count::total               6416482                       # Packet count per connected master and slave (bytes)
system.tol2bus.pkt_size_system.cpu.icache.mem_side::system.l2.cpu_side        40640                       # Cumulative packet size per connected master and slave (bytes)
system.tol2bus.pkt_size_system.cpu.dcache.mem_side::system.l2.cpu_side    273691008                       # Cumulative packet size per connected master and slave (bytes)
system.tol2bus.pkt_size::total              273731648                       # Cumulative packet size per connected master and slave (bytes)
system.tol2bus.snoops                            4681                       # Total snoops (count)
system.tol2bus.snoop_fanout::samples          4281739                       # Request fanout histogram
system.tol2bus.snoop_fanout::mean            1.001093                       # Request fanout histogram
system.tol2bus.snoop_fanout::stdev           0.033046                       # Request fanout histogram
system.tol2bus.snoop_fanout::underflows             0      0.00%      0.00% # Request fanout histogram
system.tol2bus.snoop_fanout::0                      0      0.00%      0.00% # Request fanout histogram
system.tol2bus.snoop_fanout::1                4277058     99.89%     99.89% # Request fanout histogram
system.tol2bus.snoop_fanout::2                   4681      0.11%    100.00% # Request fanout histogram
system.tol2bus.snoop_fanout::overflows              0      0.00%    100.00% # Request fanout histogram
system.tol2bus.snoop_fanout::min_value              1                       # Request fanout histogram
system.tol2bus.snoop_fanout::max_value              2                       # Request fanout histogram
system.tol2bus.snoop_fanout::total            4281739                       # Request fanout histogram
system.tol2bus.reqLayer0.occupancy         4276162000                       # Layer occupancy (ticks)
system.tol2bus.reqLayer0.utilization             35.5                       # Layer utilization (%)
system.tol2bus.respLayer0.occupancy           1061500                       # Layer occupancy (ticks)
system.tol2bus.respLayer0.utilization             0.0                       # Layer utilization (%)
system.tol2bus.respLayer1.occupancy        3208348455                       # Layer occupancy (ticks)
system.tol2bus.respLayer1.utilization            26.6                       # Layer utilization (%)

---------- End Simulation Statistics   ----------
